#======================================================================

# CRYSTAL DATA

#----------------------------------------------------------------------

data_VESTA_phase_1


_pd_phase_name                         MOF
_cell_length_a                         14.93800
_cell_length_b                         14.95200
_cell_length_c                         20.93700
_cell_angle_alpha                      72.33600
_cell_angle_beta                       72.73300
_cell_angle_gamma                      99.30600
_symmetry_space_group_name_H-M         "P 1"
_symmetry_Int_Tables_number            1

loop_
_symmetry_equiv_pos_as_xyz
   "x, y, z"

loop_
   _atom_site_label
   _atom_site_occupancy
   _atom_site_fract_x
   _atom_site_fract_y
   _atom_site_fract_z
   _atom_site_adp_type
   _atom_site_B_iso_or_equiv
   _atom_site_type_symbol
    H   1.0     0.724148     0.139675     0.681668  Biso 1.000000     H
    H   1.0     0.608771     0.027342     0.804481  Biso 1.000000     H
    H   1.0     0.440042     0.946800     0.823924  Biso 1.000000     H
    H   1.0     0.498527     0.085449     0.596834  Biso 1.000000     H
    H   1.0     0.146638     0.794648     0.852228  Biso 1.000000     H
    H   1.0     0.976503     0.713209     0.873735  Biso 1.000000     H
    H   1.0     0.011963     0.902401     0.659632  Biso 1.000000     H
    H   1.0     0.182506     0.980003     0.637690  Biso 1.000000     H
    H   1.0     0.825175     0.492819     0.658769  Biso 1.000000     H
    H   1.0     0.796194     0.502077     0.779561  Biso 1.000000     H
    H   1.0     0.934931     0.558711     0.812431  Biso 1.000000     H
    H   1.0     0.135741     0.600098     0.602978  Biso 1.000000     H
    H   1.0     0.381483     0.711625     0.651333  Biso 1.000000     H
    H   1.0     0.525687     0.761537     0.681087  Biso 1.000000     H
    H   1.0     0.337446     0.689854     0.901601  Biso 1.000000     H
    H   1.0     0.192667     0.634485     0.872222  Biso 1.000000     H
    H   1.0     0.819587     0.405359     0.319637  Biso 1.000000     H
    H   1.0     0.829710     0.413402     0.196899  Biso 1.000000     H
    H   1.0     0.769408     0.264164     0.177335  Biso 1.000000     H
    H   1.0     0.682680     0.094411     0.404110  Biso 1.000000     H
    H   1.0     0.648094     0.000000     0.147862  Biso 1.000000     H
    H   1.0     0.588613     0.851802     0.125978  Biso 1.000000     H
    H   1.0     0.563131     0.672007     0.339898  Biso 1.000000     H
    H   1.0     0.618441     0.820133     0.362212  Biso 1.000000     H
    H   1.0     0.152460     0.485958     0.339461  Biso 1.000000     H
    H   1.0     0.283206     0.578811     0.218835  Biso 1.000000     H
    H   1.0     0.372812     0.750216     0.186728  Biso 1.000000     H
    H   1.0     0.203460     0.739215     0.396479  Biso 1.000000     H
    H   1.0     0.362439     0.034373     0.348660  Biso 1.000000     H
    H   1.0     0.442262     0.208399     0.318571  Biso 1.000000     H
    H   1.0     0.592200     0.240554     0.098335  Biso 1.000000     H
    H   1.0     0.507358     0.066305     0.128056  Biso 1.000000     H
    H   1.0     0.655133     0.570512     0.819873  Biso 1.000000     H
    H   1.0     0.662982     0.580938     0.697095  Biso 1.000000     H
    H   1.0     0.513917     0.520263     0.677203  Biso 1.000000     H
    H   1.0     0.344668     0.432878     0.903650  Biso 1.000000     H
    H   1.0     0.249699     0.396628     0.647841  Biso 1.000000     H
    H   1.0     0.101390     0.336459     0.625975  Biso 1.000000     H
    H   1.0     0.922404     0.313685     0.838523  Biso 1.000000     H
    H   1.0     0.070709     0.369454     0.860881  Biso 1.000000     H
    H   1.0     0.735367     0.902529     0.838647  Biso 1.000000     H
    H   1.0     0.827959     0.032244     0.717287  Biso 1.000000     H
    H   1.0     0.999632     0.121431     0.684709  Biso 1.000000     H
    H   1.0     0.989334     0.953759     0.895531  Biso 1.000000     H
    H   1.0     0.284081     0.112859     0.847516  Biso 1.000000     H
    H   1.0     0.457871     0.192998     0.817786  Biso 1.000000     H
    H   1.0     0.490021     0.341714     0.596727  Biso 1.000000     H
    H   1.0     0.316018     0.256541     0.626126  Biso 1.000000     H
    H   1.0     0.389248     0.474714     0.181092  Biso 1.000000     H
    H   1.0     0.276694     0.359150     0.303842  Biso 1.000000     H
    H   1.0     0.196333     0.190246     0.323597  Biso 1.000000     H
    H   1.0     0.335852     0.248770     0.097051  Biso 1.000000     H
    H   1.0     0.044128     0.896727     0.352270  Biso 1.000000     H
    H   1.0     0.962303     0.726688     0.373899  Biso 1.000000     H
    H   1.0     0.152518     0.761891     0.161026  Biso 1.000000     H
    H   1.0     0.230577     0.932347     0.138951  Biso 1.000000     H
    H   1.0     0.742692     0.575731     0.159500  Biso 1.000000     H
    H   1.0     0.751704     0.547030     0.280550  Biso 1.000000     H
    H   1.0     0.808346     0.686188     0.312759  Biso 1.000000     H
    H   1.0     0.850642     0.886687     0.102077  Biso 1.000000     H
    H   1.0     0.961724     0.133560     0.149984  Biso 1.000000     H
    H   1.0     0.010980     0.277527     0.179817  Biso 1.000000     H
    H   1.0     0.939081     0.088046     0.400723  Biso 1.000000     H
    H   1.0     0.884421     0.943505     0.371240  Biso 1.000000     H
    C   1.0     0.684909     0.183818     0.559001  Biso 1.000000     C
    C   1.0     0.619042     0.118694     0.631106  Biso 1.000000     C
    C   1.0     0.650066     0.103271     0.689893  Biso 1.000000     C
    C   1.0     0.585383     0.040864     0.758644  Biso 1.000000     C
    C   1.0     0.490018    -0.005068     0.769852  Biso 1.000000     C
    C   1.0     0.457497     0.010974     0.711518  Biso 1.000000     C
    C   1.0     0.523316     0.072548     0.641905  Biso 1.000000     C
    C   1.0     0.359708     0.968187     0.722419  Biso 1.000000     C
    C   1.0     0.275174     0.933888     0.731034  Biso 1.000000     C
    C   1.0     0.176995     0.891373     0.743116  Biso 1.000000     C
    C   1.0     0.116793     0.817255     0.810319  Biso 1.000000     C
    C   1.0     0.021416     0.772341     0.822644  Biso 1.000000     C
    C   1.0     0.983372     0.802038     0.767975  Biso 1.000000     C
    C   1.0     0.884873     0.755408     0.783170  Biso 1.000000     C
    C   1.0     0.041790     0.877391     0.701260  Biso 1.000000     C
    C   1.0     0.137731     0.921165     0.689019  Biso 1.000000     C
    C   1.0     0.000000     0.533115     0.554847  Biso 1.000000     C
    C   1.0     0.982560     0.544559     0.623617  Biso 1.000000     C
    C   1.0     0.886318     0.517284     0.673278  Biso 1.000000     C
    C   1.0     0.870362     0.523601     0.740583  Biso 1.000000     C
    C   1.0     0.948107     0.556628     0.759063  Biso 1.000000     C
    C   1.0     0.044836     0.585642     0.709192  Biso 1.000000     C
    C   1.0     0.061248     0.579844     0.641086  Biso 1.000000     C
    C   1.0     0.125124     0.617043     0.727419  Biso 1.000000     C
    C   1.0     0.195672     0.641955     0.742389  Biso 1.000000     C
    C   1.0     0.277419     0.670778     0.759650  Biso 1.000000     C
    C   1.0     0.372124     0.707063     0.705930  Biso 1.000000     C
    C   1.0     0.452754     0.735341     0.722411  Biso 1.000000     C
    C   1.0     0.440087     0.728994     0.793240  Biso 1.000000     C
    C   1.0     0.522287     0.754728     0.811197  Biso 1.000000     C
    C   1.0     0.345884     0.693262     0.847357  Biso 1.000000     C
    C   1.0     0.265672     0.663705     0.830745  Biso 1.000000     C
    C   1.0     0.742523     0.243083     0.441955  Biso 1.000000     C
    C   1.0     0.749247     0.249400     0.369967  Biso 1.000000     C
    C   1.0     0.791809     0.339542     0.311321  Biso 1.000000     C
    C   1.0     0.797973     0.343937     0.242626  Biso 1.000000     C
    C   1.0     0.763701     0.259822     0.231354  Biso 1.000000     C
    C   1.0     0.722134     0.168656     0.289551  Biso 1.000000     C
    C   1.0     0.714282     0.164498     0.359130  Biso 1.000000     C
    C   1.0     0.690649     0.081966     0.278427  Biso 1.000000     C
    C   1.0     0.665386     0.000000     0.269356  Biso 1.000000     C
    C   1.0     0.635362     0.920643     0.256935  Biso 1.000000     C
    C   1.0     0.628751     0.928122     0.189656  Biso 1.000000     C
    C   1.0     0.596437     0.845303     0.177108  Biso 1.000000     C
    C   1.0     0.571331     0.752394     0.231643  Biso 1.000000     C
    C   1.0     0.539822     0.669312     0.216379  Biso 1.000000     C
    C   1.0     0.579775     0.743620     0.298391  Biso 1.000000     C
    C   1.0     0.611097     0.827064     0.310848  Biso 1.000000     C
    C   1.0     0.088499     0.558516     0.444047  Biso 1.000000     C
    C   1.0     0.168891     0.607319     0.375273  Biso 1.000000     C
    C   1.0     0.191488     0.561500     0.325263  Biso 1.000000     C
    C   1.0     0.265508     0.613405     0.258074  Biso 1.000000     C
    C   1.0     0.316999     0.709526     0.239973  Biso 1.000000     C
    C   1.0     0.295771     0.755634     0.290148  Biso 1.000000     C
    C   1.0     0.221541     0.703372     0.358139  Biso 1.000000     C
    C   1.0     0.345135     0.854086     0.272315  Biso 1.000000     C
    C   1.0     0.384632     0.939557     0.257765  Biso 1.000000     C
    C   1.0     0.430583     0.038561     0.240503  Biso 1.000000     C
    C   1.0     0.412788     0.079578     0.294060  Biso 1.000000     C
    C   1.0     0.457627     0.176720     0.277397  Biso 1.000000     C
    C   1.0     0.522451     0.234864     0.206554  Biso 1.000000     C
    C   1.0     0.566280     0.335011     0.188458  Biso 1.000000     C
    C   1.0     0.541102     0.194764     0.152584  Biso 1.000000     C
    C   1.0     0.494903     0.097912     0.169383  Biso 1.000000     C
    C   1.0     0.493158     0.493015     0.941861  Biso 1.000000     C
    C   1.0     0.499428     0.499806     0.869867  Biso 1.000000     C
    C   1.0     0.589374     0.542651     0.811405  Biso 1.000000     C
    C   1.0     0.593692     0.548939     0.742693  Biso 1.000000     C
    C   1.0     0.509679     0.514448     0.731231  Biso 1.000000     C
    C   1.0     0.418699     0.472603     0.789235  Biso 1.000000     C
    C   1.0     0.414619     0.464682     0.858828  Biso 1.000000     C
    C   1.0     0.332076     0.440953     0.777917  Biso 1.000000     C
    C   1.0     0.256546     0.415536     0.768718  Biso 1.000000     C
    C   1.0     0.170724     0.385233     0.756250  Biso 1.000000     C
    C   1.0     0.177930     0.377746     0.689325  Biso 1.000000     C
    C   1.0     0.095067     0.345024     0.676798  Biso 1.000000     C
    C   1.0     0.000000     0.320573     0.730960  Biso 1.000000     C
    C   1.0     0.919137     0.288827     0.715762  Biso 1.000000     C
    C   1.0     0.993857     0.329903     0.797335  Biso 1.000000     C
    C   1.0     0.077375     0.361497     0.809804  Biso 1.000000     C
    C   1.0     0.808515     0.838861     0.943523  Biso 1.000000     C
    C   1.0     0.857133     0.919063     0.874415  Biso 1.000000     C
    C   1.0     0.811002     0.941403     0.824265  Biso 1.000000     C
    C   1.0     0.862788     0.014840     0.756646  Biso 1.000000     C
    C   1.0     0.959061     0.066093     0.738275  Biso 1.000000     C
    C   1.0     0.000000     0.045297     0.788640  Biso 1.000000     C
    C   1.0     0.953301     0.971577     0.857038  Biso 1.000000     C
    C   1.0     0.103934     0.094602     0.770663  Biso 1.000000     C
    C   1.0     0.189377     0.134195     0.756076  Biso 1.000000     C
    C   1.0     0.288288     0.180325     0.738935  Biso 1.000000     C
    C   1.0     0.329246     0.162990     0.792809  Biso 1.000000     C
    C   1.0     0.426252     0.208017     0.776345  Biso 1.000000     C
    C   1.0     0.484337     0.272584     0.705372  Biso 1.000000     C
    C   1.0     0.584381     0.316462     0.687505  Biso 1.000000     C
    C   1.0     0.444290     0.290805     0.651083  Biso 1.000000     C
    C   1.0     0.347568     0.244406     0.667695  Biso 1.000000     C
    C   1.0     0.433867     0.435378     0.058880  Biso 1.000000     C
    C   1.0     0.368680     0.369446     0.130942  Biso 1.000000     C
    C   1.0     0.353002     0.400509     0.189490  Biso 1.000000     C
    C   1.0     0.290442     0.335755     0.258187  Biso 1.000000     C
    C   1.0     0.244654     0.240275     0.269581  Biso 1.000000     C
    C   1.0     0.260980     0.207704     0.211500  Biso 1.000000     C
    C   1.0     0.322732     0.273584     0.141933  Biso 1.000000     C
    C   1.0     0.218295     0.109800     0.222636  Biso 1.000000     C
    C   1.0     0.184024     0.025181     0.231474  Biso 1.000000     C
    C   1.0     0.141402     0.926981     0.243724  Biso 1.000000     C
    C   1.0     0.066881     0.866845     0.310653  Biso 1.000000     C
    C   1.0     0.021743     0.771511     0.323044  Biso 1.000000     C
    C   1.0     0.051594     0.733476     0.268733  Biso 1.000000     C
    C   1.0     0.004585     0.635100     0.283882  Biso 1.000000     C
    C   1.0     0.127391     0.791765     0.202341  Biso 1.000000     C
    C   1.0     0.171410     0.887660     0.190025  Biso 1.000000     C
    C   1.0     0.783300     0.753492     0.054636  Biso 1.000000     C
    C   1.0     0.794812     0.733299     0.123521  Biso 1.000000     C
    C   1.0     0.767286     0.637009     0.173713  Biso 1.000000     C
    C   1.0     0.773432     0.621225     0.241159  Biso 1.000000     C
    C   1.0     0.806452     0.699188     0.259281  Biso 1.000000     C
    C   1.0     0.835798     0.795931     0.208865  Biso 1.000000     C
    C   1.0     0.830162     0.812163     0.140620  Biso 1.000000     C
    C   1.0     0.867258     0.876430     0.226694  Biso 1.000000     C
    C   1.0     0.892237     0.947161     0.241300  Biso 1.000000     C
    C   1.0     0.920858     0.028858     0.258479  Biso 1.000000     C
    C   1.0     0.957004     0.123857     0.204686  Biso 1.000000     C
    C   1.0     0.984916     0.204380     0.221219  Biso 1.000000     C
    C   1.0     0.978314     0.191313     0.292182  Biso 1.000000     C
    C   1.0     0.003573     0.273300     0.310303  Biso 1.000000     C
    C   1.0     0.942705     0.096807     0.346370  Biso 1.000000     C
    C   1.0     0.913553     0.016712     0.329699  Biso 1.000000     C
    N   1.0     0.953578     0.472313     0.535288  Biso 1.000000     N
    N   1.0     0.759961     0.259566     0.537920  Biso 1.000000     N
    N   1.0     0.589729     0.773494     0.827109  Biso 1.000000     N
    N   1.0     0.802860     0.714164     0.799945  Biso 1.000000     N
    N   1.0     0.008234     0.489181     0.463865  Biso 1.000000     N
    N   1.0     0.797409     0.297255     0.462693  Biso 1.000000     N
    N   1.0     0.601090     0.418353     0.172462  Biso 1.000000     N
    N   1.0     0.515104     0.604191     0.199690  Biso 1.000000     N
    N   1.0     0.739243     0.758467     0.963557  Biso 1.000000     N
    N   1.0     0.547295     0.547890     0.962623  Biso 1.000000     N
    N   1.0     0.667657     0.351136     0.671767  Biso 1.000000     N
    N   1.0     0.853779     0.263971     0.699200  Biso 1.000000     N
    N   1.0     0.722445     0.703967     0.035180  Biso 1.000000     N
    N   1.0     0.509540     0.510493     0.037837  Biso 1.000000     N
    N   1.0     0.021851     0.340411     0.326490  Biso 1.000000     N
    N   1.0     0.962918     0.553218     0.300526  Biso 1.000000     N
    O   1.0     0.088963     0.589139     0.499390  Biso 1.000000     O
    O   1.0     0.670316     0.169914     0.500580  Biso 1.000000     O
    O   1.0     0.839265     0.839522    -0.001102  Biso 1.000000     O
    O   1.0     0.420024     0.420787     0.000447  Biso 1.000000     O
    F   1.0     0.816209     0.738196     0.436192  Biso 1.000000     F
    F   1.0     0.761787     0.601355     0.575058  Biso 1.000000     F
    F   1.0     0.605501     0.496096     0.555738  Biso 1.000000     F
    F   1.0     0.660295     0.632839     0.419437  Biso 1.000000     F
    F   1.0     0.628661     0.691443     0.536225  Biso 1.000000     F
    F   1.0     0.796284     0.543463     0.458432  Biso 1.000000     F
    F   1.0     0.171920     0.249928     0.563818  Biso 1.000000     F
    F   1.0     0.175294     0.339425     0.425149  Biso 1.000000     F
    F   1.0     0.050981     0.164338     0.441681  Biso 1.000000     F
    F   1.0     0.050909     0.078649     0.577646  Biso 1.000000     F
    F   1.0     0.227002     0.167584     0.460845  Biso 1.000000     F
    F   1.0     0.000065     0.253686     0.541589  Biso 1.000000     F
    F   1.0     0.499712     0.922042     0.066146  Biso 1.000000     F
    F   1.0     0.589416     0.925362     0.927920  Biso 1.000000     F
    F   1.0     0.414243     0.800777     0.944312  Biso 1.000000     F
    F   1.0     0.329022     0.801085     0.080071  Biso 1.000000     F
    F   1.0     0.417722     0.976918     0.961151  Biso 1.000000     F
    F   1.0     0.503710     0.750058     0.044435  Biso 1.000000     F
    F   1.0     0.988045     0.566062     0.935991  Biso 1.000000     F
    F   1.0     0.851415     0.515554     0.072509  Biso 1.000000     F
    F   1.0     0.746174     0.355761     0.058168  Biso 1.000000     F
    F   1.0     0.879188     0.410137     0.919769  Biso 1.000000     F
    F   1.0     0.941190     0.378950     0.036148  Biso 1.000000     F
    F   1.0     0.793329     0.546325     0.955925  Biso 1.000000     F
   Ag   1.0     0.814027     0.347232     0.600492  Biso 1.000000    Ag
   Ag   1.0     0.948218     0.414254     0.399131  Biso 1.000000    Ag
   Ag   1.0     0.665022     0.697822     0.898745  Biso 1.000000    Ag
   Ag   1.0     0.596233     0.565124     0.100955  Biso 1.000000    Ag
   Sb   1.0     0.711102     0.617027     0.497225  Biso 1.000000    Sb
   Sb   1.0     0.112837     0.208952     0.501342  Biso 1.000000    Sb
   Sb   1.0     0.458940     0.863000     0.003584  Biso 1.000000    Sb
   Sb   1.0     0.866360     0.461556     0.996820  Biso 1.000000    Sb
