#======================================================================

# CRYSTAL DATA

#----------------------------------------------------------------------

data_VESTA_phase_1


_pd_phase_name                         MOF
_cell_length_a                         15.15800
_cell_length_b                         15.15700
_cell_length_c                         20.08200
_cell_angle_alpha                      106.41100
_cell_angle_beta                       106.65300
_cell_angle_gamma                      101.20500
_symmetry_space_group_name_H-M         "P 1"
_symmetry_Int_Tables_number            1

loop_
_symmetry_equiv_pos_as_xyz
   "x, y, z"

loop_
   _atom_site_label
   _atom_site_occupancy
   _atom_site_fract_x
   _atom_site_fract_y
   _atom_site_fract_z
   _atom_site_adp_type
   _atom_site_B_iso_or_equiv
   _atom_site_type_symbol
    H   1.0     0.877943     0.512281     0.917744  Biso 1.000000     H
    H   1.0     0.002602     0.614893     0.043074  Biso 1.000000     H
    H   1.0     0.087347     0.783288     0.068660  Biso 1.000000     H
    H   1.0     0.927820     0.752057     0.843020  Biso 1.000000     H
    H   1.0     0.242603     0.088524     0.109539  Biso 1.000000     H
    H   1.0     0.324193     0.259080     0.130819  Biso 1.000000     H
    H   1.0     0.137422     0.222446     0.910640  Biso 1.000000     H
    H   1.0     0.059148     0.051825     0.888971  Biso 1.000000     H
    H   1.0     0.581085     0.451026     0.562431  Biso 1.000000     H
    H   1.0     0.561334     0.444457     0.433247  Biso 1.000000     H
    H   1.0     0.702469     0.500401     0.402051  Biso 1.000000     H
    H   1.0     0.889157     0.575663     0.630348  Biso 1.000000     H
    H   1.0     0.138708     0.675488     0.587065  Biso 1.000000     H
    H   1.0     0.289119     0.738143     0.566842  Biso 1.000000     H
    H   1.0     0.124392     0.672585     0.335028  Biso 1.000000     H
    H   1.0     0.973258     0.607028     0.355156  Biso 1.000000     H
    H   1.0     0.488008     0.122193     0.582725  Biso 1.000000     H
    H   1.0     0.385430     0.997584     0.457450  Biso 1.000000     H
    H   1.0     0.216920     0.912637     0.431551  Biso 1.000000     H
    H   1.0     0.247911     0.071956     0.656722  Biso 1.000000     H
    H   1.0     0.911091     0.757269     0.390395  Biso 1.000000     H
    H   1.0     0.740527     0.675601     0.369158  Biso 1.000000     H
    H   1.0     0.777762     0.862103     0.589033  Biso 1.000000     H
    H   1.0     0.948412     0.940475     0.610663  Biso 1.000000     H
    H   1.0     0.548670     0.418802     0.937147  Biso 1.000000     H
    H   1.0     0.555248     0.438471     0.066268  Biso 1.000000     H
    H   1.0     0.499410     0.297465     0.097742  Biso 1.000000     H
    H   1.0     0.424356     0.111037     0.869873  Biso 1.000000     H
    H   1.0     0.324524     0.861714     0.913259  Biso 1.000000     H
    H   1.0     0.261783     0.711273     0.933512  Biso 1.000000     H
    H   1.0     0.327397     0.875266     0.165094  Biso 1.000000     H
    H   1.0     0.393016     0.026402     0.144930  Biso 1.000000     H
    H   1.0     0.122139     0.487719     0.082281  Biso 1.000000     H
    H   1.0     0.997470     0.385148     0.956949  Biso 1.000000     H
    H   1.0     0.912680     0.216762     0.931338  Biso 1.000000     H
    H   1.0     0.072172     0.247921     0.156970  Biso 1.000000     H
    H   1.0     0.757403     0.911479     0.890458  Biso 1.000000     H
    H   1.0     0.675826     0.740924     0.869184  Biso 1.000000     H
    H   1.0     0.862603     0.777580     0.089368  Biso 1.000000     H
    H   1.0     0.940862     0.948204     0.111031  Biso 1.000000     H
    H   1.0     0.418960     0.548973     0.437584  Biso 1.000000     H
    H   1.0     0.438707     0.555580     0.566776  Biso 1.000000     H
    H   1.0     0.297570     0.499649     0.597973  Biso 1.000000     H
    H   1.0     0.110889     0.424342     0.369669  Biso 1.000000     H
    H   1.0     0.861308     0.324529     0.412924  Biso 1.000000     H
    H   1.0     0.710903     0.261877     0.433158  Biso 1.000000     H
    H   1.0     0.875659     0.327474     0.664979  Biso 1.000000     H
    H   1.0     0.026775     0.393011     0.644833  Biso 1.000000     H
    H   1.0     0.511981     0.877896     0.417295  Biso 1.000000     H
    H   1.0     0.614605     0.002492     0.542572  Biso 1.000000     H
    H   1.0     0.783123     0.087393     0.568445  Biso 1.000000     H
    H   1.0     0.752060     0.928041     0.343268  Biso 1.000000     H
    H   1.0     0.088908     0.242746     0.609607  Biso 1.000000     H
    H   1.0     0.259471     0.324424     0.630849  Biso 1.000000     H
    H   1.0     0.222255     0.137927     0.410977  Biso 1.000000     H
    H   1.0     0.051607     0.059540     0.389344  Biso 1.000000     H
    H   1.0     0.451331     0.581247     0.062871  Biso 1.000000     H
    H   1.0     0.444795     0.561571     0.933759  Biso 1.000000     H
    H   1.0     0.500642     0.702573     0.902283  Biso 1.000000     H
    H   1.0     0.575639     0.889013     0.130141  Biso 1.000000     H
    H   1.0     0.675488     0.138306     0.086735  Biso 1.000000     H
    H   1.0     0.738233     0.288754     0.066496  Biso 1.000000     H
    H   1.0     0.672657     0.124800     0.834922  Biso 1.000000     H
    H   1.0     0.607022     0.973637     0.855065  Biso 1.000000     H
    C   1.0     0.821651     0.568034     0.800066  Biso 1.000000     C
    C   1.0     0.895159     0.626111     0.872735  Biso 1.000000     C
    C   1.0     0.915626     0.586917     0.929123  Biso 1.000000     C
    C   1.0     0.985232     0.644281    -0.001040  Biso 1.000000     C
    C   1.0     0.033905     0.739586     0.013508  Biso 1.000000     C
    C   1.0     0.013922     0.779491     0.957292  Biso 1.000000     C
    C   1.0     0.944397     0.721597     0.886490  Biso 1.000000     C
    C   1.0     0.061541     0.876929     0.972038  Biso 1.000000     C
    C   1.0     0.101235     0.961243     0.984718  Biso 1.000000     C
    C   1.0     0.146099     0.058547     0.997727  Biso 1.000000     C
    C   1.0     0.220346     0.118427     0.066368  Biso 1.000000     C
    C   1.0     0.265389     0.213392     0.078515  Biso 1.000000     C
    C   1.0     0.235568     0.250950     0.021965  Biso 1.000000     C
    C   1.0     0.279202     0.348890     0.035240  Biso 1.000000     C
    C   1.0     0.160949     0.192409     0.953542  Biso 1.000000     C
    C   1.0     0.117206     0.097277     0.941584  Biso 1.000000     C
    C   1.0     0.750301     0.517918     0.680122  Biso 1.000000     C
    C   1.0     0.736665     0.513939     0.604665  Biso 1.000000     C
    C   1.0     0.643790     0.475988     0.548940  Biso 1.000000     C
    C   1.0     0.632857     0.471949     0.476714  Biso 1.000000     C
    C   1.0     0.712577     0.504104     0.458885  Biso 1.000000     C
    C   1.0     0.806016     0.542087     0.514398  Biso 1.000000     C
    C   1.0     0.817224     0.547279     0.587544  Biso 1.000000     C
    C   1.0     0.888476     0.574076     0.497693  Biso 1.000000     C
    C   1.0     0.960848     0.602234     0.485027  Biso 1.000000     C
    C   1.0     0.045743     0.637562     0.472583  Biso 1.000000     C
    C   1.0     0.135816     0.675330     0.532231  Biso 1.000000     C
    C   1.0     0.219671     0.710413     0.521046  Biso 1.000000     C
    C   1.0     0.215344     0.709174     0.449735  Biso 1.000000     C
    C   1.0     0.301850     0.741935     0.438062  Biso 1.000000     C
    C   1.0     0.126062     0.672450     0.389657  Biso 1.000000     C
    C   1.0     0.042553     0.636588     0.401281  Biso 1.000000     C
    C   1.0     0.431989     0.178340     0.699965  Biso 1.000000     C
    C   1.0     0.374002     0.104810     0.627364  Biso 1.000000     C
    C   1.0     0.413309     0.084445     0.571209  Biso 1.000000     C
    C   1.0     0.355973     0.014847     0.501396  Biso 1.000000     C
    C   1.0     0.260594     0.966066     0.486668  Biso 1.000000     C
    C   1.0     0.220592     0.985920     0.542684  Biso 1.000000     C
    C   1.0     0.278456     0.055448     0.613436  Biso 1.000000     C
    C   1.0     0.123082     0.938230     0.527795  Biso 1.000000     C
    C   1.0     0.038720     0.898530     0.515080  Biso 1.000000     C
    C   1.0     0.941383     0.853653     0.502067  Biso 1.000000     C
    C   1.0     0.881315     0.779460     0.433503  Biso 1.000000     C
    C   1.0     0.786334     0.734374     0.421378  Biso 1.000000     C
    C   1.0     0.748953     0.764083     0.477855  Biso 1.000000     C
    C   1.0     0.651014     0.720368     0.464642  Biso 1.000000     C
    C   1.0     0.807674     0.838664     0.546194  Biso 1.000000     C
    C   1.0     0.902821     0.882454     0.558131  Biso 1.000000     C
    C   1.0     0.481965     0.249758     0.819815  Biso 1.000000     C
    C   1.0     0.485927     0.263377     0.895236  Biso 1.000000     C
    C   1.0     0.523782     0.356147     0.950770  Biso 1.000000     C
    C   1.0     0.527811     0.367041     0.022944  Biso 1.000000     C
    C   1.0     0.495722     0.287384     0.040936  Biso 1.000000     C
    C   1.0     0.457826     0.194055     0.985636  Biso 1.000000     C
    C   1.0     0.452653     0.182889     0.912518  Biso 1.000000     C
    C   1.0     0.425902     0.111630     0.002446  Biso 1.000000     C
    C   1.0     0.397780     0.039226     0.015139  Biso 1.000000     C
    C   1.0     0.362455     0.954299     0.027605  Biso 1.000000     C
    C   1.0     0.324672     0.864431     0.968050  Biso 1.000000     C
    C   1.0     0.289538     0.780562     0.979251  Biso 1.000000     C
    C   1.0     0.290761     0.784667     0.050487  Biso 1.000000     C
    C   1.0     0.257897     0.698154     0.062181  Biso 1.000000     C
    C   1.0     0.327530     0.873739     0.110497  Biso 1.000000     C
    C   1.0     0.363437     0.957263     0.098856  Biso 1.000000     C
    C   1.0     0.178404     0.431918     0.199943  Biso 1.000000     C
    C   1.0     0.104876     0.373876     0.127276  Biso 1.000000     C
    C   1.0     0.084432     0.413087     0.070896  Biso 1.000000     C
    C   1.0     0.014819     0.355746     0.000000  Biso 1.000000     C
    C   1.0     0.966118     0.260446     0.986496  Biso 1.000000     C
    C   1.0     0.986081     0.220523     0.042703  Biso 1.000000     C
    C   1.0     0.055610     0.278395     0.113508  Biso 1.000000     C
    C   1.0     0.938449     0.123086     0.027949  Biso 1.000000     C
    C   1.0     0.898762     0.038772     0.015276  Biso 1.000000     C
    C   1.0     0.853909     0.941468     0.002271  Biso 1.000000     C
    C   1.0     0.779662     0.881581     0.933632  Biso 1.000000     C
    C   1.0     0.734630     0.786614     0.921487  Biso 1.000000     C
    C   1.0     0.764457     0.749063     0.978040  Biso 1.000000     C
    C   1.0     0.720838     0.651121     0.964768  Biso 1.000000     C
    C   1.0     0.839074     0.807612     0.046463  Biso 1.000000     C
    C   1.0     0.882805     0.902746     0.058419  Biso 1.000000     C
    C   1.0     0.249751     0.482046     0.319888  Biso 1.000000     C
    C   1.0     0.263378     0.486066     0.395352  Biso 1.000000     C
    C   1.0     0.356255     0.524016     0.451075  Biso 1.000000     C
    C   1.0     0.367187     0.528078     0.523305  Biso 1.000000     C
    C   1.0     0.287465     0.495942     0.541140  Biso 1.000000     C
    C   1.0     0.194029     0.457943     0.485624  Biso 1.000000     C
    C   1.0     0.182821     0.452729     0.412474  Biso 1.000000     C
    C   1.0     0.111562     0.425962     0.502322  Biso 1.000000     C
    C   1.0     0.039175     0.397796     0.514965  Biso 1.000000     C
    C   1.0     0.954280     0.362463     0.527405  Biso 1.000000     C
    C   1.0     0.864205     0.324692     0.467760  Biso 1.000000     C
    C   1.0     0.780355     0.289609     0.478950  Biso 1.000000     C
    C   1.0     0.784692     0.290858     0.550265  Biso 1.000000     C
    C   1.0     0.698187     0.258113     0.561946  Biso 1.000000     C
    C   1.0     0.873976     0.327584     0.610341  Biso 1.000000     C
    C   1.0     0.957479     0.363446     0.598709  Biso 1.000000     C
    C   1.0     0.567958     0.821720     0.300044  Biso 1.000000     C
    C   1.0     0.625974     0.895235     0.372644  Biso 1.000000     C
    C   1.0     0.586687     0.915617     0.428810  Biso 1.000000     C
    C   1.0     0.644048     0.985206     0.498621  Biso 1.000000     C
    C   1.0     0.739428     0.033965     0.513333  Biso 1.000000     C
    C   1.0     0.779414     0.014084     0.457309  Biso 1.000000     C
    C   1.0     0.721529     0.944561     0.386561  Biso 1.000000     C
    C   1.0     0.876925     0.061767     0.472193  Biso 1.000000     C
    C   1.0     0.961288     0.101475     0.484919  Biso 1.000000     C
    C   1.0     0.058625     0.146361     0.497937  Biso 1.000000     C
    C   1.0     0.118688     0.220556     0.566502  Biso 1.000000     C
    C   1.0     0.213667     0.265651     0.578629  Biso 1.000000     C
    C   1.0     0.251054     0.235946     0.522154  Biso 1.000000     C
    C   1.0     0.348990     0.279672     0.535367  Biso 1.000000     C
    C   1.0     0.192338     0.161363     0.453815  Biso 1.000000     C
    C   1.0     0.097194     0.117563     0.441876  Biso 1.000000     C
    C   1.0     0.517994     0.750299     0.180195  Biso 1.000000     C
    C   1.0     0.514068     0.736671     0.104779  Biso 1.000000     C
    C   1.0     0.476224     0.643900     0.049248  Biso 1.000000     C
    C   1.0     0.472219     0.633003     0.977078  Biso 1.000000     C
    C   1.0     0.504321     0.712657     0.959089  Biso 1.000000     C
    C   1.0     0.542201     0.805990     0.014384  Biso 1.000000     C
    C   1.0     0.547350     0.817159     0.087498  Biso 1.000000     C
    C   1.0     0.574131     0.888410     0.997568  Biso 1.000000     C
    C   1.0     0.602245     0.960801     0.984857  Biso 1.000000     C
    C   1.0     0.637569     0.045729     0.972390  Biso 1.000000     C
    C   1.0     0.675346     0.135595     0.031947  Biso 1.000000     C
    C   1.0     0.710481     0.219469     0.020753  Biso 1.000000     C
    C   1.0     0.709268     0.215375     0.949521  Biso 1.000000     C
    C   1.0     0.742144     0.301888     0.937832  Biso 1.000000     C
    C   1.0     0.672504     0.126306     0.889509  Biso 1.000000     C
    C   1.0     0.636595     0.042775     0.901141  Biso 1.000000     C
    N   1.0     0.697212     0.465977     0.704911  Biso 1.000000     N
    N   1.0     0.742285     0.498981     0.781979  Biso 1.000000     N
    N   1.0     0.314572     0.430633     0.048017  Biso 1.000000     N
    N   1.0     0.373964     0.766469     0.428541  Biso 1.000000     N
    N   1.0     0.533833     0.302888     0.795004  Biso 1.000000     N
    N   1.0     0.500937     0.257746     0.717997  Biso 1.000000     N
    N   1.0     0.569271     0.684922     0.451951  Biso 1.000000     N
    N   1.0     0.233271     0.626045     0.071736  Biso 1.000000     N
    N   1.0     0.302872     0.533940     0.295092  Biso 1.000000     N
    N   1.0     0.257797     0.500932     0.218025  Biso 1.000000     N
    N   1.0     0.685480     0.569376     0.951995  Biso 1.000000     N
    N   1.0     0.626071     0.233596     0.571468  Biso 1.000000     N
    N   1.0     0.466073     0.697205     0.204997  Biso 1.000000     N
    N   1.0     0.498971     0.742340     0.282006  Biso 1.000000     N
    N   1.0     0.430732     0.315126     0.548060  Biso 1.000000     N
    N   1.0     0.766788     0.373992     0.928275  Biso 1.000000     N
    O   1.0     0.830475     0.583840     0.737980  Biso 1.000000     O
    O   1.0     0.416171     0.169523     0.762030  Biso 1.000000     O
    O   1.0     0.169556     0.416143     0.262035  Biso 1.000000     O
    O   1.0     0.583809     0.830513     0.237984  Biso 1.000000     O
    O   1.0     0.644250     0.496440     0.283271  Biso 1.000000     O
    O   1.0     0.497115     0.495237     0.307786  Biso 1.000000     O
    O   1.0     0.503550     0.356090     0.216715  Biso 1.000000     O
    O   1.0     0.505525     0.502742     0.191099  Biso 1.000000     O
    O   1.0     0.355824     0.503577     0.716761  Biso 1.000000     O
    O   1.0     0.502970     0.504883     0.692242  Biso 1.000000     O
    O   1.0     0.496451     0.644004     0.783290  Biso 1.000000     O
    O   1.0     0.494617     0.497398     0.808947  Biso 1.000000     O
    O   1.0     0.842619     0.201357     0.816099  Biso 1.000000     O
    O   1.0     0.681188     0.186822     0.740773  Biso 1.000000     O
    O   1.0     0.797679     0.156964     0.683283  Biso 1.000000     O
    O   1.0     0.814852     0.318768     0.758769  Biso 1.000000     O
    O   1.0     0.157520     0.798402     0.183777  Biso 1.000000     O
    O   1.0     0.319298     0.814955     0.259787  Biso 1.000000     O
    O   1.0     0.201680     0.842789     0.316533  Biso 1.000000     O
    O   1.0     0.186786     0.681579     0.241391  Biso 1.000000     O
   Cl   1.0     0.537673     0.462556     0.249728  Biso 1.000000    Cl
   Cl   1.0     0.462401     0.537535     0.750298  Biso 1.000000    Cl
   Cl   1.0     0.784120     0.215953     0.749733  Biso 1.000000    Cl
   Cl   1.0     0.216291     0.784458     0.250372  Biso 1.000000    Cl
   Ag   1.0     0.563864     0.332230     0.649569  Biso 1.000000    Ag
   Ag   1.0     0.667081     0.436742     0.850367  Biso 1.000000    Ag
   Ag   1.0     0.436128     0.667778     0.350433  Biso 1.000000    Ag
   Ag   1.0     0.332920     0.563254     0.149635  Biso 1.000000    Ag
