#======================================================================

# CRYSTAL DATA

#----------------------------------------------------------------------

data_VESTA_phase_1


_pd_phase_name                         MOF
_cell_length_a                         15.29500
_cell_length_b                         15.29500
_cell_length_c                         18.40300
_cell_angle_alpha                      90.00000
_cell_angle_beta                       90.00000
_cell_angle_gamma                      94.61900
_symmetry_space_group_name_H-M         "P 1"
_symmetry_Int_Tables_number            1

loop_
_symmetry_equiv_pos_as_xyz
   "x, y, z"

loop_
   _atom_site_label
   _atom_site_occupancy
   _atom_site_fract_x
   _atom_site_fract_y
   _atom_site_fract_z
   _atom_site_adp_type
   _atom_site_B_iso_or_equiv
   _atom_site_type_symbol
    H   1.0     0.249927     0.102778     0.787103  Biso 1.000000     H
    H   1.0     0.254375     0.604661     0.787102  Biso 1.000000     H
    H   1.0     0.751425     0.102780     0.787101  Biso 1.000000     H
    H   1.0     0.755876     0.604661     0.787102  Biso 1.000000     H
    H   1.0     0.256015     0.399059     0.787114  Biso 1.000000     H
    H   1.0     0.260467     0.900940     0.787110  Biso 1.000000     H
    H   1.0     0.757518     0.399059     0.787113  Biso 1.000000     H
    H   1.0     0.761964     0.900943     0.787113  Biso 1.000000     H
    H   1.0     0.401029     0.252640     0.728685  Biso 1.000000     H
    H   1.0     0.405478     0.754520     0.728680  Biso 1.000000     H
    H   1.0     0.902528     0.252639     0.728684  Biso 1.000000     H
    H   1.0     0.906977     0.754522     0.728684  Biso 1.000000     H
    H   1.0     0.104926     0.249171     0.728688  Biso 1.000000     H
    H   1.0     0.109376     0.751055     0.728688  Biso 1.000000     H
    H   1.0     0.606427     0.249171     0.728687  Biso 1.000000     H
    H   1.0     0.610875     0.751055     0.728690  Biso 1.000000     H
    H   1.0     0.256021     0.399067     0.223405  Biso 1.000000     H
    H   1.0     0.260470     0.900951     0.223407  Biso 1.000000     H
    H   1.0     0.757522     0.399068     0.223406  Biso 1.000000     H
    H   1.0     0.761970     0.900951     0.223406  Biso 1.000000     H
    H   1.0     0.249929     0.102788     0.223409  Biso 1.000000     H
    H   1.0     0.254379     0.604669     0.223408  Biso 1.000000     H
    H   1.0     0.751430     0.102789     0.223411  Biso 1.000000     H
    H   1.0     0.755880     0.604670     0.223408  Biso 1.000000     H
    H   1.0     0.104918     0.249189     0.281830  Biso 1.000000     H
    H   1.0     0.109366     0.751074     0.281829  Biso 1.000000     H
    H   1.0     0.606417     0.249190     0.281832  Biso 1.000000     H
    H   1.0     0.610868     0.751073     0.281828  Biso 1.000000     H
    H   1.0     0.401019     0.252660     0.281827  Biso 1.000000     H
    H   1.0     0.405467     0.754540     0.281830  Biso 1.000000     H
    H   1.0     0.902520     0.252658     0.281828  Biso 1.000000     H
    H   1.0     0.906967     0.754541     0.281829  Biso 1.000000     H
    H   1.0     0.341094     0.013682     0.505258  Biso 1.000000     H
    H   1.0     0.345541     0.515552     0.505259  Biso 1.000000     H
    H   1.0     0.842594     0.013678     0.505258  Biso 1.000000     H
    H   1.0     0.847042     0.515555     0.505258  Biso 1.000000     H
    H   1.0     0.164848     0.488146     0.505256  Biso 1.000000     H
    H   1.0     0.169295     0.990023     0.505257  Biso 1.000000     H
    H   1.0     0.666349     0.488148     0.505256  Biso 1.000000     H
    H   1.0     0.670794     0.990021     0.505256  Biso 1.000000     H
    H   1.0     0.489397     0.160639     0.000001  Biso 1.000000     H
    H   1.0     0.493837     0.662523     0.000001  Biso 1.000000     H
    H   1.0     0.990901     0.160619     0.000000  Biso 1.000000     H
    H   1.0     0.995347     0.662503     0.000000  Biso 1.000000     H
    H   1.0     0.016538     0.341204    -0.000002  Biso 1.000000     H
    H   1.0     0.020980     0.843088    -0.000001  Biso 1.000000     H
    H   1.0     0.518040     0.341204    -0.000002  Biso 1.000000     H
    H   1.0     0.522473     0.843087    -0.000002  Biso 1.000000     H
   Be   1.0     0.250746    -0.000029     0.701672  Biso 1.000000    Be
   Be   1.0     0.255194     0.501854     0.701672  Biso 1.000000    Be
   Be   1.0     0.752245    -0.000030     0.701672  Biso 1.000000    Be
   Be   1.0     0.756695     0.501854     0.701672  Biso 1.000000    Be
   Be   1.0     0.002224     0.250903     0.814132  Biso 1.000000    Be
   Be   1.0     0.006675     0.752787     0.814132  Biso 1.000000    Be
   Be   1.0     0.503727     0.250903     0.814132  Biso 1.000000    Be
   Be   1.0     0.508172     0.752788     0.814132  Biso 1.000000    Be
   Be   1.0     0.250749    -0.000017     0.308842  Biso 1.000000    Be
   Be   1.0     0.255198     0.501866     0.308843  Biso 1.000000    Be
   Be   1.0     0.752250    -0.000018     0.308843  Biso 1.000000    Be
   Be   1.0     0.756699     0.501867     0.308843  Biso 1.000000    Be
   Be   1.0     0.002220     0.250925     0.196383  Biso 1.000000    Be
   Be   1.0     0.006667     0.752810     0.196383  Biso 1.000000    Be
   Be   1.0     0.503721     0.250925     0.196383  Biso 1.000000    Be
   Be   1.0     0.508167     0.752809     0.196383  Biso 1.000000    Be
   Be   1.0     0.391371     0.111181     0.757891  Biso 1.000000    Be
   Be   1.0     0.395819     0.613063     0.757890  Biso 1.000000    Be
   Be   1.0     0.892870     0.111180     0.757891  Biso 1.000000    Be
   Be   1.0     0.897321     0.613064     0.757890  Biso 1.000000    Be
   Be   1.0     0.114574     0.390632     0.757891  Biso 1.000000    Be
   Be   1.0     0.119025     0.892515     0.757891  Biso 1.000000    Be
   Be   1.0     0.616077     0.390631     0.757891  Biso 1.000000    Be
   Be   1.0     0.620523     0.892516     0.757892  Biso 1.000000    Be
   Be   1.0     0.114578     0.390648     0.252622  Biso 1.000000    Be
   Be   1.0     0.119026     0.892533     0.252621  Biso 1.000000    Be
   Be   1.0     0.616079     0.390649     0.252621  Biso 1.000000    Be
   Be   1.0     0.620526     0.892533     0.252620  Biso 1.000000    Be
   Be   1.0     0.391372     0.111200     0.252627  Biso 1.000000    Be
   Be   1.0     0.395822     0.613081     0.252628  Biso 1.000000    Be
   Be   1.0     0.892874     0.111198     0.252628  Biso 1.000000    Be
   Be   1.0     0.897322     0.613082     0.252628  Biso 1.000000    Be
    C   1.0     0.456040     0.003813     0.571360  Biso 1.000000     C
    C   1.0     0.460488     0.505692     0.571361  Biso 1.000000     C
    C   1.0     0.957541     0.003811     0.571361  Biso 1.000000     C
    C   1.0     0.961990     0.505693     0.571360  Biso 1.000000     C
    C   1.0     0.405782     0.017830     0.639542  Biso 1.000000     C
    C   1.0     0.410232     0.519706     0.639544  Biso 1.000000     C
    C   1.0     0.907283     0.017827     0.639543  Biso 1.000000     C
    C   1.0     0.911734     0.519707     0.639544  Biso 1.000000     C
    C   1.0     0.049900     0.497993     0.571359  Biso 1.000000     C
    C   1.0     0.054347     0.999876     0.571360  Biso 1.000000     C
    C   1.0     0.551400     0.497993     0.571360  Biso 1.000000     C
    C   1.0     0.555847     0.999875     0.571359  Biso 1.000000     C
    C   1.0     0.100158     0.483978     0.639540  Biso 1.000000     C
    C   1.0     0.104607     0.985859     0.639540  Biso 1.000000     C
    C   1.0     0.601660     0.483976     0.639540  Biso 1.000000     C
    C   1.0     0.606107     0.985857     0.639539  Biso 1.000000     C
    C   1.0     0.498096     0.045487     0.944413  Biso 1.000000     C
    C   1.0     0.502544     0.547372     0.944413  Biso 1.000000     C
    C   1.0     0.999597     0.045487     0.944412  Biso 1.000000     C
    C   1.0     0.000000     0.547372     0.944413  Biso 1.000000     C
    C   1.0     0.484540     0.095911     0.876235  Biso 1.000000     C
    C   1.0     0.488986     0.597795     0.876235  Biso 1.000000     C
    C   1.0     0.986039     0.095910     0.876234  Biso 1.000000     C
    C   1.0     0.990495     0.597789     0.876230  Biso 1.000000     C
    C   1.0     0.007838     0.456316     0.944412  Biso 1.000000     C
    C   1.0     0.012287     0.958201     0.944412  Biso 1.000000     C
    C   1.0     0.509342     0.456317     0.944412  Biso 1.000000     C
    C   1.0     0.513785     0.958201     0.944412  Biso 1.000000     C
    C   1.0     0.021383     0.405900     0.876227  Biso 1.000000     C
    C   1.0     0.025841     0.907779     0.876232  Biso 1.000000     C
    C   1.0     0.522895     0.405894     0.876232  Biso 1.000000     C
    C   1.0     0.527337     0.907778     0.876232  Biso 1.000000     C
    C   1.0     0.049901     0.498006     0.439154  Biso 1.000000     C
    C   1.0     0.054349     0.999888     0.439155  Biso 1.000000     C
    C   1.0     0.551401     0.498006     0.439155  Biso 1.000000     C
    C   1.0     0.555848     0.999888     0.439154  Biso 1.000000     C
    C   1.0     0.100160     0.483997     0.370972  Biso 1.000000     C
    C   1.0     0.104607     0.985881     0.370972  Biso 1.000000     C
    C   1.0     0.601659     0.484000     0.370971  Biso 1.000000     C
    C   1.0     0.606108     0.985879     0.370973  Biso 1.000000     C
    C   1.0     0.456042     0.003826     0.439155  Biso 1.000000     C
    C   1.0     0.460490     0.505705     0.439156  Biso 1.000000     C
    C   1.0     0.957542     0.003824     0.439156  Biso 1.000000     C
    C   1.0     0.961991     0.505706     0.439155  Biso 1.000000     C
    C   1.0     0.405783     0.017851     0.370976  Biso 1.000000     C
    C   1.0     0.410233     0.519728     0.370975  Biso 1.000000     C
    C   1.0     0.907285     0.017847     0.370975  Biso 1.000000     C
    C   1.0     0.911733     0.519730     0.370975  Biso 1.000000     C
    C   1.0     0.007837     0.456335     0.066103  Biso 1.000000     C
    C   1.0     0.012284     0.958221     0.066103  Biso 1.000000     C
    C   1.0     0.509341     0.456336     0.066102  Biso 1.000000     C
    C   1.0     0.513784     0.958220     0.066103  Biso 1.000000     C
    C   1.0     0.021391     0.405917     0.134285  Biso 1.000000     C
    C   1.0     0.025844     0.907797     0.134281  Biso 1.000000     C
    C   1.0     0.522902     0.405912     0.134279  Biso 1.000000     C
    C   1.0     0.527345     0.907795     0.134280  Biso 1.000000     C
    C   1.0     0.498095     0.045506     0.066103  Biso 1.000000     C
    C   1.0     0.502543     0.547391     0.066103  Biso 1.000000     C
    C   1.0     0.999595     0.045506     0.066103  Biso 1.000000     C
    C   1.0     0.000000     0.547391     0.066104  Biso 1.000000     C
    C   1.0     0.484542     0.095930     0.134282  Biso 1.000000     C
    C   1.0     0.488991     0.597813     0.134283  Biso 1.000000     C
    C   1.0     0.986046     0.095927     0.134284  Biso 1.000000     C
    C   1.0     0.990498     0.597808     0.134287  Biso 1.000000     C
    C   1.0     0.411370     0.006658     0.505258  Biso 1.000000     C
    C   1.0     0.415818     0.508535     0.505258  Biso 1.000000     C
    C   1.0     0.912870     0.006656     0.505258  Biso 1.000000     C
    C   1.0     0.917319     0.508537     0.505258  Biso 1.000000     C
    C   1.0     0.094572     0.495162     0.505256  Biso 1.000000     C
    C   1.0     0.099019     0.997044     0.505257  Biso 1.000000     C
    C   1.0     0.596072     0.495163     0.505257  Biso 1.000000     C
    C   1.0     0.600519     0.997044     0.505257  Biso 1.000000     C
    C   1.0     0.495692     0.090237     0.000000  Biso 1.000000     C
    C   1.0     0.500136     0.592122     0.000000  Biso 1.000000     C
    C   1.0     0.997189     0.090237    -0.000000  Biso 1.000000     C
    C   1.0     0.000000     0.592102     0.000000  Biso 1.000000     C
    C   1.0     0.010242     0.411605    -0.000001  Biso 1.000000     C
    C   1.0     0.014683     0.913489    -0.000001  Biso 1.000000     C
    C   1.0     0.511739     0.411605    -0.000001  Biso 1.000000     C
    C   1.0     0.516178     0.913489    -0.000001  Biso 1.000000     C
    O   1.0     0.334727     0.478834     0.644870  Biso 1.000000     O
    O   1.0     0.339176     0.980724     0.644869  Biso 1.000000     O
    O   1.0     0.836228     0.478836     0.644869  Biso 1.000000     O
    O   1.0     0.840676     0.980722     0.644870  Biso 1.000000     O
    O   1.0     0.440567     0.073320     0.684850  Biso 1.000000     O
    O   1.0     0.445014     0.575201     0.684849  Biso 1.000000     O
    O   1.0     0.942066     0.073319     0.684850  Biso 1.000000     O
    O   1.0     0.946516     0.575202     0.684849  Biso 1.000000     O
    O   1.0     0.287442     0.085015     0.748065  Biso 1.000000     O
    O   1.0     0.291890     0.586898     0.748064  Biso 1.000000     O
    O   1.0     0.788941     0.085014     0.748064  Biso 1.000000     O
    O   1.0     0.793391     0.586898     0.748064  Biso 1.000000     O
    O   1.0     0.171210     0.022972     0.644866  Biso 1.000000     O
    O   1.0     0.175661     0.524856     0.644865  Biso 1.000000     O
    O   1.0     0.672711     0.022971     0.644866  Biso 1.000000     O
    O   1.0     0.677161     0.524857     0.644865  Biso 1.000000     O
    O   1.0     0.065381     0.428476     0.684843  Biso 1.000000     O
    O   1.0     0.069828     0.930361     0.684845  Biso 1.000000     O
    O   1.0     0.566882     0.428477     0.684844  Biso 1.000000     O
    O   1.0     0.571327     0.930362     0.684845  Biso 1.000000     O
    O   1.0     0.218501     0.416821     0.748075  Biso 1.000000     O
    O   1.0     0.222951     0.918706     0.748074  Biso 1.000000     O
    O   1.0     0.720003     0.416821     0.748075  Biso 1.000000     O
    O   1.0     0.724449     0.918706     0.748075  Biso 1.000000     O
    O   1.0     0.024521     0.171121     0.870932  Biso 1.000000     O
    O   1.0     0.028968     0.673005     0.870934  Biso 1.000000     O
    O   1.0     0.526024     0.171120     0.870932  Biso 1.000000     O
    O   1.0     0.530467     0.673007     0.870933  Biso 1.000000     O
    O   1.0     0.428794     0.061597     0.830916  Biso 1.000000     O
    O   1.0     0.433241     0.563480     0.830916  Biso 1.000000     O
    O   1.0     0.930293     0.061596     0.830916  Biso 1.000000     O
    O   1.0     0.934739     0.563481     0.830918  Biso 1.000000     O
    O   1.0     0.418434     0.214940     0.767725  Biso 1.000000     O
    O   1.0     0.422882     0.716823     0.767723  Biso 1.000000     O
    O   1.0     0.919933     0.214940     0.767724  Biso 1.000000     O
    O   1.0     0.924384     0.716823     0.767724  Biso 1.000000     O
    O   1.0     0.481414     0.330684     0.870930  Biso 1.000000     O
    O   1.0     0.485854     0.832569     0.870928  Biso 1.000000     O
    O   1.0     0.982915     0.330683     0.870932  Biso 1.000000     O
    O   1.0     0.987361     0.832568     0.870930  Biso 1.000000     O
    O   1.0     0.077143     0.440203     0.830916  Biso 1.000000     O
    O   1.0     0.081591     0.942087     0.830915  Biso 1.000000     O
    O   1.0     0.578643     0.440204     0.830915  Biso 1.000000     O
    O   1.0     0.583087     0.942087     0.830916  Biso 1.000000     O
    O   1.0     0.087524     0.286870     0.767731  Biso 1.000000     O
    O   1.0     0.091975     0.788754     0.767730  Biso 1.000000     O
    O   1.0     0.589027     0.286870     0.767730  Biso 1.000000     O
    O   1.0     0.593473     0.788755     0.767731  Biso 1.000000     O
    O   1.0     0.171216     0.022985     0.365651  Biso 1.000000     O
    O   1.0     0.175665     0.524871     0.365651  Biso 1.000000     O
    O   1.0     0.672716     0.022984     0.365651  Biso 1.000000     O
    O   1.0     0.677166     0.524871     0.365651  Biso 1.000000     O
    O   1.0     0.065378     0.428506     0.325662  Biso 1.000000     O
    O   1.0     0.069826     0.930391     0.325662  Biso 1.000000     O
    O   1.0     0.566879     0.428507     0.325662  Biso 1.000000     O
    O   1.0     0.571325     0.930392     0.325660  Biso 1.000000     O
    O   1.0     0.218505     0.416830     0.262443  Biso 1.000000     O
    O   1.0     0.222953     0.918716     0.262443  Biso 1.000000     O
    O   1.0     0.720006     0.416831     0.262443  Biso 1.000000     O
    O   1.0     0.724453     0.918715     0.262443  Biso 1.000000     O
    O   1.0     0.334732     0.478848     0.365644  Biso 1.000000     O
    O   1.0     0.339181     0.980737     0.365643  Biso 1.000000     O
    O   1.0     0.836232     0.478850     0.365644  Biso 1.000000     O
    O   1.0     0.840682     0.980735     0.365643  Biso 1.000000     O
    O   1.0     0.440563     0.073352     0.325674  Biso 1.000000     O
    O   1.0     0.445011     0.575233     0.325675  Biso 1.000000     O
    O   1.0     0.942064     0.073351     0.325675  Biso 1.000000     O
    O   1.0     0.946512     0.575234     0.325675  Biso 1.000000     O
    O   1.0     0.287443     0.085025     0.262447  Biso 1.000000     O
    O   1.0     0.291893     0.586908     0.262447  Biso 1.000000     O
    O   1.0     0.788945     0.085024     0.262448  Biso 1.000000     O
    O   1.0     0.793393     0.586909     0.262447  Biso 1.000000     O
    O   1.0     0.481408     0.330708     0.139589  Biso 1.000000     O
    O   1.0     0.485849     0.832593     0.139591  Biso 1.000000     O
    O   1.0     0.982909     0.330707     0.139587  Biso 1.000000     O
    O   1.0     0.987352     0.832593     0.139590  Biso 1.000000     O
    O   1.0     0.077161     0.440215     0.179590  Biso 1.000000     O
    O   1.0     0.081605     0.942100     0.179591  Biso 1.000000     O
    O   1.0     0.578659     0.440216     0.179591  Biso 1.000000     O
    O   1.0     0.583104     0.942100     0.179591  Biso 1.000000     O
    O   1.0     0.087519     0.286888     0.242787  Biso 1.000000     O
    O   1.0     0.091967     0.788773     0.242786  Biso 1.000000     O
    O   1.0     0.589020     0.286888     0.242787  Biso 1.000000     O
    O   1.0     0.593468     0.788773     0.242786  Biso 1.000000     O
    O   1.0     0.024515     0.171145     0.139579  Biso 1.000000     O
    O   1.0     0.028959     0.673030     0.139577  Biso 1.000000     O
    O   1.0     0.526019     0.171144     0.139581  Biso 1.000000     O
    O   1.0     0.530463     0.673029     0.139579  Biso 1.000000     O
    O   1.0     0.428809     0.061610     0.179608  Biso 1.000000     O
    O   1.0     0.433258     0.563492     0.179609  Biso 1.000000     O
    O   1.0     0.930308     0.061610     0.179608  Biso 1.000000     O
    O   1.0     0.934755     0.563493     0.179608  Biso 1.000000     O
    O   1.0     0.418427     0.214960     0.242788  Biso 1.000000     O
    O   1.0     0.422876     0.716841     0.242790  Biso 1.000000     O
    O   1.0     0.919928     0.214958     0.242789  Biso 1.000000     O
    O   1.0     0.924376     0.716842     0.242790  Biso 1.000000     O
