#======================================================================

# CRYSTAL DATA

#----------------------------------------------------------------------

data_VESTA_phase_1


_pd_phase_name                         MOF
_cell_length_a                         15.45000
_cell_length_b                         19.65800
_cell_length_c                         17.42200
_cell_angle_alpha                      102.57500
_cell_angle_beta                       89.94300
_cell_angle_gamma                      113.18200
_symmetry_space_group_name_H-M         "P 1"
_symmetry_Int_Tables_number            1

loop_
_symmetry_equiv_pos_as_xyz
   "x, y, z"

loop_
   _atom_site_label
   _atom_site_occupancy
   _atom_site_fract_x
   _atom_site_fract_y
   _atom_site_fract_z
   _atom_site_adp_type
   _atom_site_B_iso_or_equiv
   _atom_site_type_symbol
    H   1.0     0.437032     0.399233     0.608505  Biso 1.000000     H
    H   1.0     0.437051     0.899241     0.608508  Biso 1.000000     H
    H   1.0     0.937046     0.399234     0.608508  Biso 1.000000     H
    H   1.0     0.937047     0.899237     0.608504  Biso 1.000000     H
    H   1.0     0.411847     0.353098     0.462306  Biso 1.000000     H
    H   1.0     0.411867     0.853111     0.462309  Biso 1.000000     H
    H   1.0     0.911864     0.353103     0.462308  Biso 1.000000     H
    H   1.0     0.911863     0.853104     0.462306  Biso 1.000000     H
    H   1.0     0.236312     0.127264     0.484702  Biso 1.000000     H
    H   1.0     0.236324     0.627275     0.484699  Biso 1.000000     H
    H   1.0     0.736315     0.127269     0.484697  Biso 1.000000     H
    H   1.0     0.736321     0.627269     0.484700  Biso 1.000000     H
    H   1.0     0.259258     0.172213     0.630767  Biso 1.000000     H
    H   1.0     0.259268     0.672222     0.630765  Biso 1.000000     H
    H   1.0     0.759259     0.172215     0.630762  Biso 1.000000     H
    H   1.0     0.759267     0.672219     0.630766  Biso 1.000000     H
    H   1.0     0.045896     0.028503     0.898435  Biso 1.000000     H
    H   1.0     0.045891     0.528541     0.898440  Biso 1.000000     H
    H   1.0     0.545865     0.028574     0.898446  Biso 1.000000     H
    H   1.0     0.545903     0.528517     0.898437  Biso 1.000000     H
    H   1.0     0.102824     0.065168     0.041359  Biso 1.000000     H
    H   1.0     0.102819     0.565208     0.041365  Biso 1.000000     H
    H   1.0     0.602791     0.065244     0.041370  Biso 1.000000     H
    H   1.0     0.602833     0.565179     0.041360  Biso 1.000000     H
    H   1.0     0.365037     0.232430     0.997318  Biso 1.000000     H
    H   1.0     0.365070     0.732416     0.997307  Biso 1.000000     H
    H   1.0     0.865089     0.232387     0.997297  Biso 1.000000     H
    H   1.0     0.865053     0.732431     0.997315  Biso 1.000000     H
    H   1.0     0.310045     0.196509     0.854478  Biso 1.000000     H
    H   1.0     0.310077     0.696491     0.854467  Biso 1.000000     H
    H   1.0     0.810097     0.196459     0.854456  Biso 1.000000     H
    H   1.0     0.810060     0.696510     0.854475  Biso 1.000000     H
    H   1.0     0.037012     0.099493     0.388234  Biso 1.000000     H
    H   1.0     0.037025     0.599500     0.388235  Biso 1.000000     H
    H   1.0     0.537018     0.099495     0.388236  Biso 1.000000     H
    H   1.0     0.537023     0.599499     0.388233  Biso 1.000000     H
    H   1.0     0.057859     0.145661     0.534433  Biso 1.000000     H
    H   1.0     0.057875     0.645670     0.534434  Biso 1.000000     H
    H   1.0     0.557865     0.145663     0.534435  Biso 1.000000     H
    H   1.0     0.557872     0.645669     0.534432  Biso 1.000000     H
    H   1.0     0.108560     0.371486     0.512033  Biso 1.000000     H
    H   1.0     0.108562     0.871492     0.512034  Biso 1.000000     H
    H   1.0     0.608557     0.371488     0.512036  Biso 1.000000     H
    H   1.0     0.608573     0.871493     0.512032  Biso 1.000000     H
    H   1.0     0.086669     0.326516     0.365969  Biso 1.000000     H
    H   1.0     0.086670     0.826521     0.365970  Biso 1.000000     H
    H   1.0     0.586663     0.326517     0.365971  Biso 1.000000     H
    H   1.0     0.586682     0.826523     0.365967  Biso 1.000000     H
    H   1.0     0.017123     0.470747     0.098732  Biso 1.000000     H
    H   1.0     0.017077     0.970718     0.098726  Biso 1.000000     H
    H   1.0     0.517082     0.470719     0.098727  Biso 1.000000     H
    H   1.0     0.517194     0.970790     0.098735  Biso 1.000000     H
    H   1.0     0.037307     0.434263     0.955697  Biso 1.000000     H
    H   1.0     0.037260     0.934234     0.955691  Biso 1.000000     H
    H   1.0     0.537266     0.434236     0.955693  Biso 1.000000     H
    H   1.0     0.537385     0.934309     0.955701  Biso 1.000000     H
    H   1.0     0.131644     0.266642    -0.001041  Biso 1.000000     H
    H   1.0     0.131685     0.766666    -0.001035  Biso 1.000000     H
    H   1.0     0.631671     0.266655    -0.001036  Biso 1.000000     H
    H   1.0     0.631603     0.766622    -0.001051  Biso 1.000000     H
    H   1.0     0.112600     0.302342     0.141909  Biso 1.000000     H
    H   1.0     0.112640     0.802364     0.141915  Biso 1.000000     H
    H   1.0     0.612626     0.302354     0.141914  Biso 1.000000     H
    H   1.0     0.612553     0.802318     0.141898  Biso 1.000000     H
    C   1.0     0.359223     0.317614     0.715594  Biso 1.000000     C
    C   1.0     0.359238     0.817617     0.715596  Biso 1.000000     C
    C   1.0     0.859231     0.317616     0.715593  Biso 1.000000     C
    C   1.0     0.859235     0.817614     0.715593  Biso 1.000000     C
    C   1.0     0.348613     0.288987     0.629581  Biso 1.000000     C
    C   1.0     0.348628     0.788996     0.629582  Biso 1.000000     C
    C   1.0     0.848620     0.288989     0.629580  Biso 1.000000     C
    C   1.0     0.848626     0.788992     0.629580  Biso 1.000000     C
    C   1.0     0.392638     0.339729     0.581777  Biso 1.000000     C
    C   1.0     0.392656     0.839738     0.581778  Biso 1.000000     C
    C   1.0     0.892654     0.339730     0.581777  Biso 1.000000     C
    C   1.0     0.892652     0.839733     0.581775  Biso 1.000000     C
    C   1.0     0.378930     0.314142     0.499957  Biso 1.000000     C
    C   1.0     0.378948     0.814153     0.499959  Biso 1.000000     C
    C   1.0     0.878940     0.314147     0.499957  Biso 1.000000     C
    C   1.0     0.878945     0.814147     0.499957  Biso 1.000000     C
    C   1.0     0.322184     0.237607     0.464846  Biso 1.000000     C
    C   1.0     0.322194     0.737619     0.464847  Biso 1.000000     C
    C   1.0     0.822185     0.237614     0.464845  Biso 1.000000     C
    C   1.0     0.822192     0.737613     0.464845  Biso 1.000000     C
    C   1.0     0.279863     0.186628     0.512503  Biso 1.000000     C
    C   1.0     0.279875     0.686638     0.512502  Biso 1.000000     C
    C   1.0     0.779863     0.186632     0.512500  Biso 1.000000     C
    C   1.0     0.779873     0.686633     0.512501  Biso 1.000000     C
    C   1.0     0.292764     0.212148     0.594338  Biso 1.000000     C
    C   1.0     0.292778     0.712158     0.594337  Biso 1.000000     C
    C   1.0     0.792772     0.212150     0.594335  Biso 1.000000     C
    C   1.0     0.792776     0.712154     0.594337  Biso 1.000000     C
    C   1.0     0.306114     0.211405     0.377026  Biso 1.000000     C
    C   1.0     0.306138     0.711418     0.377027  Biso 1.000000     C
    C   1.0     0.806136     0.211413     0.377025  Biso 1.000000     C
    C   1.0     0.806133     0.711410     0.377026  Biso 1.000000     C
    C   1.0     0.141611     0.083929     0.782579  Biso 1.000000     C
    C   1.0     0.141628     0.583934     0.782575  Biso 1.000000     C
    C   1.0     0.641622     0.083932     0.782572  Biso 1.000000     C
    C   1.0     0.641625     0.583934     0.782578  Biso 1.000000     C
    C   1.0     0.175025     0.108932     0.866905  Biso 1.000000     C
    C   1.0     0.175040     0.608939     0.866903  Biso 1.000000     C
    C   1.0     0.675036     0.108939     0.866900  Biso 1.000000     C
    C   1.0     0.675037     0.608938     0.866905  Biso 1.000000     C
    C   1.0     0.116312     0.072349     0.919927  Biso 1.000000     C
    C   1.0     0.116315     0.572375     0.919929  Biso 1.000000     C
    C   1.0     0.616299     0.072395     0.919930  Biso 1.000000     C
    C   1.0     0.616321     0.572360     0.919927  Biso 1.000000     C
    C   1.0     0.147936     0.092115     0.999486  Biso 1.000000     C
    C   1.0     0.147940     0.592141     0.999488  Biso 1.000000     C
    C   1.0     0.647923     0.092162     0.999490  Biso 1.000000     C
    C   1.0     0.647947     0.592124     0.999486  Biso 1.000000     C
    C   1.0     0.237983     0.148785     0.027553  Biso 1.000000     C
    C   1.0     0.237999     0.648795     0.027550  Biso 1.000000     C
    C   1.0     0.737995     0.148797     0.027548  Biso 1.000000     C
    C   1.0     0.737997     0.648789     0.027552  Biso 1.000000     C
    C   1.0     0.295436     0.187678     0.975282  Biso 1.000000     C
    C   1.0     0.295462     0.687674     0.975275  Biso 1.000000     C
    C   1.0     0.795472     0.187657     0.975267  Biso 1.000000     C
    C   1.0     0.795451     0.687679     0.975280  Biso 1.000000     C
    C   1.0     0.264252     0.167614     0.895259  Biso 1.000000     C
    C   1.0     0.264276     0.667609     0.895252  Biso 1.000000     C
    C   1.0     0.764286     0.167591     0.895244  Biso 1.000000     C
    C   1.0     0.764265     0.667618     0.895257  Biso 1.000000     C
    C   1.0     0.271587     0.165705     0.112837  Biso 1.000000     C
    C   1.0     0.271595     0.665716     0.112836  Biso 1.000000     C
    C   1.0     0.771592     0.165715     0.112833  Biso 1.000000     C
    C   1.0     0.771596     0.665710     0.112838  Biso 1.000000     C
    C   1.0     0.040918     0.181051     0.281185  Biso 1.000000     C
    C   1.0     0.040925     0.681056     0.281187  Biso 1.000000     C
    C   1.0     0.540915     0.181050     0.281190  Biso 1.000000     C
    C   1.0     0.540924     0.681052     0.281187  Biso 1.000000     C
    C   1.0     0.059048     0.209751     0.367173  Biso 1.000000     C
    C   1.0     0.059058     0.709758     0.367175  Biso 1.000000     C
    C   1.0     0.559051     0.209754     0.367177  Biso 1.000000     C
    C   1.0     0.559064     0.709759     0.367174  Biso 1.000000     C
    C   1.0     0.052130     0.158991     0.414962  Biso 1.000000     C
    C   1.0     0.052142     0.658998     0.414963  Biso 1.000000     C
    C   1.0     0.552133     0.158993     0.414964  Biso 1.000000     C
    C   1.0     0.552140     0.658997     0.414962  Biso 1.000000     C
    C   1.0     0.064056     0.184613     0.496776  Biso 1.000000     C
    C   1.0     0.064069     0.684621     0.496777  Biso 1.000000     C
    C   1.0     0.564061     0.184616     0.496778  Biso 1.000000     C
    C   1.0     0.564068     0.684620     0.496775  Biso 1.000000     C
    C   1.0     0.083799     0.261131     0.531887  Biso 1.000000     C
    C   1.0     0.083809     0.761138     0.531888  Biso 1.000000     C
    C   1.0     0.583800     0.261133     0.531889  Biso 1.000000     C
    C   1.0     0.583811     0.761138     0.531886  Biso 1.000000     C
    C   1.0     0.092717     0.312125     0.484237  Biso 1.000000     C
    C   1.0     0.092724     0.812131     0.484239  Biso 1.000000     C
    C   1.0     0.592717     0.312127     0.484240  Biso 1.000000     C
    C   1.0     0.592731     0.812132     0.484237  Biso 1.000000     C
    C   1.0     0.080066     0.286583     0.402405  Biso 1.000000     C
    C   1.0     0.080070     0.786589     0.402406  Biso 1.000000     C
    C   1.0     0.580064     0.286585     0.402408  Biso 1.000000     C
    C   1.0     0.580078     0.786590     0.402404  Biso 1.000000     C
    C   1.0     0.094032     0.287348     0.619712  Biso 1.000000     C
    C   1.0     0.094046     0.787356     0.619713  Biso 1.000000     C
    C   1.0     0.594038     0.287351     0.619715  Biso 1.000000     C
    C   1.0     0.594049     0.787356     0.619711  Biso 1.000000     C
    C   1.0     0.057341     0.415039     0.214266  Biso 1.000000     C
    C   1.0     0.057337     0.915035     0.214267  Biso 1.000000     C
    C   1.0     0.557331     0.415033     0.214266  Biso 1.000000     C
    C   1.0     0.557347     0.915044     0.214262  Biso 1.000000     C
    C   1.0     0.065492     0.390102     0.129863  Biso 1.000000     C
    C   1.0     0.065487     0.890098     0.129864  Biso 1.000000     C
    C   1.0     0.565484     0.390095     0.129864  Biso 1.000000     C
    C   1.0     0.565501     0.890110     0.129860  Biso 1.000000     C
    C   1.0     0.043607     0.426898     0.077046  Biso 1.000000     C
    C   1.0     0.043579     0.926881     0.077044  Biso 1.000000     C
    C   1.0     0.543580     0.426879     0.077044  Biso 1.000000     C
    C   1.0     0.543654     0.926927     0.077047  Biso 1.000000     C
    C   1.0     0.055335     0.407178    -0.002579  Biso 1.000000     C
    C   1.0     0.055306     0.907160    -0.002581  Biso 1.000000     C
    C   1.0     0.555307     0.407159    -0.002581  Biso 1.000000     C
    C   1.0     0.555383     0.907207    -0.002577  Biso 1.000000     C
    C   1.0     0.088675     0.350547     0.969156  Biso 1.000000     C
    C   1.0     0.088671     0.850544     0.969156  Biso 1.000000     C
    C   1.0     0.588668     0.350540     0.969156  Biso 1.000000     C
    C   1.0     0.588690     0.850557     0.969153  Biso 1.000000     C
    C   1.0     0.106906     0.311404     0.021209  Biso 1.000000     C
    C   1.0     0.106929     0.811416     0.021213  Biso 1.000000     C
    C   1.0     0.606918     0.311408     0.021212  Biso 1.000000     C
    C   1.0     0.606889     0.811397     0.021202  Biso 1.000000     C
    C   1.0     0.095899     0.331404     0.101288  Biso 1.000000     C
    C   1.0     0.095921     0.831415     0.101291  Biso 1.000000     C
    C   1.0     0.595910     0.331408     0.101291  Biso 1.000000     C
    C   1.0     0.595880     0.831396     0.101280  Biso 1.000000     C
    C   1.0     0.105286     0.333681     0.883832  Biso 1.000000     C
    C   1.0     0.105291     0.833682     0.883834  Biso 1.000000     C
    C   1.0     0.605286     0.333678     0.883833  Biso 1.000000     C
    C   1.0     0.605307     0.833688     0.883830  Biso 1.000000     C
    N   1.0     0.288416     0.304626     0.763289  Biso 1.000000     N
    N   1.0     0.288432     0.804633     0.763291  Biso 1.000000     N
    N   1.0     0.788425     0.304623     0.763289  Biso 1.000000     N
    N   1.0     0.788427     0.804633     0.763288  Biso 1.000000     N
    N   1.0     0.327339     0.345303     0.837976  Biso 1.000000     N
    N   1.0     0.327359     0.845299     0.837981  Biso 1.000000     N
    N   1.0     0.827350     0.345295     0.837977  Biso 1.000000     N
    N   1.0     0.827352     0.845310     0.837975  Biso 1.000000     N
    N   1.0     0.418192     0.381357     0.836092  Biso 1.000000     N
    N   1.0     0.418210     0.881358     0.836096  Biso 1.000000     N
    N   1.0     0.918203     0.381346     0.836094  Biso 1.000000     N
    N   1.0     0.918204     0.881365     0.836090  Biso 1.000000     N
    N   1.0     0.440438     0.364934     0.760273  Biso 1.000000     N
    N   1.0     0.440454     0.864934     0.760276  Biso 1.000000     N
    N   1.0     0.940448     0.364928     0.760273  Biso 1.000000     N
    N   1.0     0.940450     0.864936     0.760272  Biso 1.000000     N
    N   1.0     0.132754     0.127855     0.736072  Biso 1.000000     N
    N   1.0     0.132768     0.627859     0.736070  Biso 1.000000     N
    N   1.0     0.632760     0.127856     0.736066  Biso 1.000000     N
    N   1.0     0.632765     0.627859     0.736072  Biso 1.000000     N
    N   1.0     0.097334     0.081460     0.662531  Biso 1.000000     N
    N   1.0     0.097341     0.581462     0.662530  Biso 1.000000     N
    N   1.0     0.597337     0.081459     0.662526  Biso 1.000000     N
    N   1.0     0.597341     0.581463     0.662532  Biso 1.000000     N
    N   1.0     0.085345     0.012361     0.664193  Biso 1.000000     N
    N   1.0     0.085349     0.512362     0.664192  Biso 1.000000     N
    N   1.0     0.585350     0.012360     0.664189  Biso 1.000000     N
    N   1.0     0.585351     0.512363     0.664193  Biso 1.000000     N
    N   1.0     0.112496     0.011834     0.738741  Biso 1.000000     N
    N   1.0     0.112500     0.511836     0.738741  Biso 1.000000     N
    N   1.0     0.612505     0.011836     0.738737  Biso 1.000000     N
    N   1.0     0.612502     0.511837     0.738742  Biso 1.000000     N
    N   1.0     0.483233     0.194052     0.233491  Biso 1.000000     N
    N   1.0     0.483249     0.694060     0.233487  Biso 1.000000     N
    N   1.0     0.983247     0.194053     0.233487  Biso 1.000000     N
    N   1.0     0.983253     0.694056     0.233489  Biso 1.000000     N
    N   1.0     0.481285     0.153159     0.158845  Biso 1.000000     N
    N   1.0     0.481304     0.653169     0.158840  Biso 1.000000     N
    N   1.0     0.981300     0.153162     0.158842  Biso 1.000000     N
    N   1.0     0.981307     0.653165     0.158844  Biso 1.000000     N
    N   1.0     0.035929     0.117032     0.160738  Biso 1.000000     N
    N   1.0     0.035935     0.617035     0.160740  Biso 1.000000     N
    N   1.0     0.535927     0.117029     0.160742  Biso 1.000000     N
    N   1.0     0.535940     0.617035     0.160737  Biso 1.000000     N
    N   1.0     0.074639     0.133592     0.236518  Biso 1.000000     N
    N   1.0     0.074650     0.633600     0.236520  Biso 1.000000     N
    N   1.0     0.574643     0.133597     0.236522  Biso 1.000000     N
    N   1.0     0.574652     0.633599     0.236519  Biso 1.000000     N
    N   1.0     0.004624     0.371023     0.260801  Biso 1.000000     N
    N   1.0     0.004621     0.871020     0.260803  Biso 1.000000     N
    N   1.0     0.504617     0.371018     0.260803  Biso 1.000000     N
    N   1.0     0.504633     0.871027     0.260798  Biso 1.000000     N
    N   1.0     0.015878     0.417359     0.334437  Biso 1.000000     N
    N   1.0     0.015867     0.917358     0.334436  Biso 1.000000     N
    N   1.0     0.515868     0.417355     0.334436  Biso 1.000000     N
    N   1.0     0.515883     0.917362     0.334432  Biso 1.000000     N
    N   1.0     0.072900     0.486512     0.332746  Biso 1.000000     N
    N   1.0     0.072894     0.986510     0.332744  Biso 1.000000     N
    N   1.0     0.572892     0.486508     0.332744  Biso 1.000000     N
    N   1.0     0.572907     0.986515     0.332742  Biso 1.000000     N
    N   1.0     0.100417     0.487125     0.258111  Biso 1.000000     N
    N   1.0     0.100410     0.987121     0.258109  Biso 1.000000     N
    N   1.0     0.600410     0.487120     0.258110  Biso 1.000000     N
    N   1.0     0.600424     0.987129     0.258107  Biso 1.000000     N
    O   1.0     0.256819     0.140609     0.347493  Biso 1.000000     O
    O   1.0     0.256835     0.640623     0.347491  Biso 1.000000     O
    O   1.0     0.756834     0.140618     0.347489  Biso 1.000000     O
    O   1.0     0.756830     0.640614     0.347491  Biso 1.000000     O
    O   1.0     0.341696     0.261695     0.337275  Biso 1.000000     O
    O   1.0     0.341721     0.761709     0.337279  Biso 1.000000     O
    O   1.0     0.841718     0.261704     0.337277  Biso 1.000000     O
    O   1.0     0.841713     0.761699     0.337275  Biso 1.000000     O
    O   1.0     0.237090     0.111944     0.148600  Biso 1.000000     O
    O   1.0     0.237094     0.611954     0.148597  Biso 1.000000     O
    O   1.0     0.737082     0.111952     0.148592  Biso 1.000000     O
    O   1.0     0.737097     0.611948     0.148600  Biso 1.000000     O
    O   1.0     0.333426     0.232669     0.143202  Biso 1.000000     O
    O   1.0     0.333439     0.732678     0.143201  Biso 1.000000     O
    O   1.0     0.833442     0.232674     0.143200  Biso 1.000000     O
    O   1.0     0.833441     0.732672     0.143201  Biso 1.000000     O
    O   1.0     0.115414     0.358113     0.649265  Biso 1.000000     O
    O   1.0     0.115420     0.858119     0.649264  Biso 1.000000     O
    O   1.0     0.615416     0.358115     0.649267  Biso 1.000000     O
    O   1.0     0.615432     0.858120     0.649262  Biso 1.000000     O
    O   1.0     0.079351     0.237041     0.659403  Biso 1.000000     O
    O   1.0     0.079370     0.737049     0.659404  Biso 1.000000     O
    O   1.0     0.579356     0.237043     0.659405  Biso 1.000000     O
    O   1.0     0.579366     0.737049     0.659402  Biso 1.000000     O
    O   1.0     0.124920     0.387567     0.848222  Biso 1.000000     O
    O   1.0     0.124917     0.887570     0.848228  Biso 1.000000     O
    O   1.0     0.624913     0.387565     0.848226  Biso 1.000000     O
    O   1.0     0.624946     0.887573     0.848219  Biso 1.000000     O
    O   1.0     0.099964     0.266688     0.853389  Biso 1.000000     O
    O   1.0     0.099976     0.766692     0.853389  Biso 1.000000     O
    O   1.0     0.599972     0.266688     0.853389  Biso 1.000000     O
    O   1.0     0.599977     0.766693     0.853390  Biso 1.000000     O
   Zn   1.0     0.081446     0.404170     0.750140  Biso 1.000000    Zn
   Zn   1.0     0.081449     0.904167     0.750141  Biso 1.000000    Zn
   Zn   1.0     0.581449     0.404171     0.750141  Biso 1.000000    Zn
   Zn   1.0     0.581462     0.904171     0.750140  Biso 1.000000    Zn
   Zn   1.0     0.149920     0.237853     0.753510  Biso 1.000000    Zn
   Zn   1.0     0.149937     0.737859     0.753511  Biso 1.000000    Zn
   Zn   1.0     0.649929     0.237856     0.753511  Biso 1.000000    Zn
   Zn   1.0     0.649932     0.737858     0.753510  Biso 1.000000    Zn
   Zn   1.0     0.176888     0.094891     0.246619  Biso 1.000000    Zn
   Zn   1.0     0.176900     0.594898     0.246620  Biso 1.000000    Zn
   Zn   1.0     0.676898     0.094899     0.246619  Biso 1.000000    Zn
   Zn   1.0     0.676896     0.594891     0.246620  Biso 1.000000    Zn
   Zn   1.0     0.411713     0.260928     0.243184  Biso 1.000000    Zn
   Zn   1.0     0.411729     0.760938     0.243183  Biso 1.000000    Zn
   Zn   1.0     0.911730     0.260933     0.243183  Biso 1.000000    Zn
   Zn   1.0     0.911728     0.760930     0.243184  Biso 1.000000    Zn
