#======================================================================

# CRYSTAL DATA

#----------------------------------------------------------------------

data_VESTA_phase_1


_pd_phase_name                         MOF
_cell_length_a                         24.97100
_cell_length_b                         13.97700
_cell_length_c                         15.98800
_cell_angle_alpha                      94.25300
_cell_angle_beta                       113.02200
_cell_angle_gamma                      89.89600
_symmetry_space_group_name_H-M         "P 1"
_symmetry_Int_Tables_number            1

loop_
_symmetry_equiv_pos_as_xyz
   "x, y, z"

loop_
   _atom_site_label
   _atom_site_occupancy
   _atom_site_fract_x
   _atom_site_fract_y
   _atom_site_fract_z
   _atom_site_adp_type
   _atom_site_B_iso_or_equiv
   _atom_site_type_symbol
    H   1.0     0.147293     0.396767     0.238439  Biso 1.000000     H
    H   1.0     0.647294     0.396809     0.238444  Biso 1.000000     H
    H   1.0     0.155748     0.395563     0.086265  Biso 1.000000     H
    H   1.0     0.655753     0.395596     0.086272  Biso 1.000000     H
    H   1.0     0.341895     0.383177     0.231718  Biso 1.000000     H
    H   1.0     0.841896     0.383140     0.231728  Biso 1.000000     H
    H   1.0     0.325841     0.388401     0.375368  Biso 1.000000     H
    H   1.0     0.825840     0.388377     0.375376  Biso 1.000000     H
    H   1.0     0.315711     0.370821    -0.009712  Biso 1.000000     H
    H   1.0     0.815717     0.370800    -0.009700  Biso 1.000000     H
    H   1.0     0.336056     0.305638     0.089902  Biso 1.000000     H
    H   1.0     0.836047     0.305594     0.089898  Biso 1.000000     H
    H   1.0     0.345167     0.432457     0.101200  Biso 1.000000     H
    H   1.0     0.845181     0.432409     0.101225  Biso 1.000000     H
    H   1.0     0.109142     0.376052     0.891249  Biso 1.000000     H
    H   1.0     0.609148     0.376005     0.891260  Biso 1.000000     H
    H   1.0     0.084732     0.306260     0.783690  Biso 1.000000     H
    H   1.0     0.584751     0.306195     0.783712  Biso 1.000000     H
    H   1.0     0.087050     0.431723     0.785565  Biso 1.000000     H
    H   1.0     0.587041     0.431657     0.785564  Biso 1.000000     H
    H   1.0     0.089746     0.350983     0.648017  Biso 1.000000     H
    H   1.0     0.589751     0.350960     0.648028  Biso 1.000000     H
    H   1.0     0.113569     0.344093     0.511282  Biso 1.000000     H
    H   1.0     0.613573     0.344086     0.511292  Biso 1.000000     H
    H   1.0     0.290937     0.355012     0.666592  Biso 1.000000     H
    H   1.0     0.790941     0.355043     0.666599  Biso 1.000000     H
    H   1.0     0.275062     0.365569     0.812252  Biso 1.000000     H
    H   1.0     0.775067     0.365586     0.812260  Biso 1.000000     H
    H   1.0     0.047566     0.183339     0.282443  Biso 1.000000     H
    H   1.0     0.547568     0.183337     0.282447  Biso 1.000000     H
    H   1.0     0.098614     0.117689     0.250751  Biso 1.000000     H
    H   1.0     0.598618     0.117690     0.250758  Biso 1.000000     H
    H   1.0     0.070427     0.003600     0.331832  Biso 1.000000     H
    H   1.0     0.570433     0.003598     0.331841  Biso 1.000000     H
    H   1.0     0.136650     0.054105     0.411741  Biso 1.000000     H
    H   1.0     0.636654     0.054110     0.411751  Biso 1.000000     H
    H   1.0     0.028520     0.102878     0.761335  Biso 1.000000     H
    H   1.0     0.528516     0.102818     0.761328  Biso 1.000000     H
    H   1.0     0.113072     0.104147     0.913623  Biso 1.000000     H
    H   1.0     0.613068     0.104077     0.913616  Biso 1.000000     H
    H   1.0     0.226583     0.117187     0.768622  Biso 1.000000     H
    H   1.0     0.726579     0.117202     0.768624  Biso 1.000000     H
    H   1.0     0.138699     0.112132     0.624842  Biso 1.000000     H
    H   1.0     0.638696     0.112151     0.624843  Biso 1.000000     H
    H   1.0     0.321051     0.128617     0.010238  Biso 1.000000     H
    H   1.0     0.821047     0.128570     0.010236  Biso 1.000000     H
    H   1.0     0.291706     0.193829     0.910631  Biso 1.000000     H
    H   1.0     0.791705     0.193816     0.910652  Biso 1.000000     H
    H   1.0     0.295122     0.066970     0.899351  Biso 1.000000     H
    H   1.0     0.795115     0.066959     0.899333  Biso 1.000000     H
    H   1.0     0.163712     0.124403     0.108538  Biso 1.000000     H
    H   1.0     0.663707     0.124413     0.108535  Biso 1.000000     H
    H   1.0     0.192904     0.194224     0.216065  Biso 1.000000     H
    H   1.0     0.692904     0.194256     0.216048  Biso 1.000000     H
    H   1.0     0.194461     0.068748     0.214258  Biso 1.000000     H
    H   1.0     0.694450     0.068781     0.214270  Biso 1.000000     H
    H   1.0     0.265819     0.149467     0.352004  Biso 1.000000     H
    H   1.0     0.765815     0.149477     0.352002  Biso 1.000000     H
    H   1.0     0.357986     0.156518     0.488922  Biso 1.000000     H
    H   1.0     0.857982     0.156528     0.488919  Biso 1.000000     H
    H   1.0     0.457887     0.145177     0.334053  Biso 1.000000     H
    H   1.0     0.957881     0.145141     0.334047  Biso 1.000000     H
    H   1.0     0.369219     0.134522     0.188234  Biso 1.000000     H
    H   1.0     0.869213     0.134481     0.188229  Biso 1.000000     H
    H   1.0     0.406462     0.316771     0.718173  Biso 1.000000     H
    H   1.0     0.906460     0.316781     0.718170  Biso 1.000000     H
    H   1.0     0.473283     0.382355     0.749896  Biso 1.000000     H
    H   1.0     0.973282     0.382360     0.749890  Biso 1.000000     H
    H   1.0     0.404212     0.496367     0.668623  Biso 1.000000     H
    H   1.0     0.904213     0.496375     0.668617  Biso 1.000000     H
    H   1.0     0.430752     0.445953     0.589003  Biso 1.000000     H
    H   1.0     0.930752     0.445956     0.588996  Biso 1.000000     H
    H   1.0     0.352707     0.603247     0.761590  Biso 1.000000     H
    H   1.0     0.852709     0.603283     0.761595  Biso 1.000000     H
    H   1.0     0.344249     0.604460     0.913763  Biso 1.000000     H
    H   1.0     0.844254     0.604488     0.913769  Biso 1.000000     H
    H   1.0     0.158105     0.616908     0.768307  Biso 1.000000     H
    H   1.0     0.658107     0.616872     0.768317  Biso 1.000000     H
    H   1.0     0.174162     0.611670     0.624659  Biso 1.000000     H
    H   1.0     0.674160     0.611649     0.624667  Biso 1.000000     H
    H   1.0     0.184280     0.629243     0.009712  Biso 1.000000     H
    H   1.0     0.684286     0.629223     0.009725  Biso 1.000000     H
    H   1.0     0.163955     0.694453     0.910134  Biso 1.000000     H
    H   1.0     0.663946     0.694413     0.910131  Biso 1.000000     H
    H   1.0     0.154820     0.567638     0.898807  Biso 1.000000     H
    H   1.0     0.654834     0.567594     0.898832  Biso 1.000000     H
    H   1.0     0.390854     0.624049     0.108775  Biso 1.000000     H
    H   1.0     0.890860     0.624002     0.108787  Biso 1.000000     H
    H   1.0     0.415250     0.693857     0.216324  Biso 1.000000     H
    H   1.0     0.915269     0.693792     0.216347  Biso 1.000000     H
    H   1.0     0.412962     0.568395     0.214470  Biso 1.000000     H
    H   1.0     0.912952     0.568329     0.214470  Biso 1.000000     H
    H   1.0     0.410250     0.649090     0.352007  Biso 1.000000     H
    H   1.0     0.910255     0.649068     0.352019  Biso 1.000000     H
    H   1.0     0.386427     0.655965     0.488742  Biso 1.000000     H
    H   1.0     0.886430     0.655955     0.488753  Biso 1.000000     H
    H   1.0     0.209059     0.645003     0.333434  Biso 1.000000     H
    H   1.0     0.709063     0.645038     0.333442  Biso 1.000000     H
    H   1.0     0.224934     0.634462     0.187773  Biso 1.000000     H
    H   1.0     0.724939     0.634480     0.187782  Biso 1.000000     H
    H   1.0     0.452430     0.816721     0.717583  Biso 1.000000     H
    H   1.0     0.952433     0.816721     0.717588  Biso 1.000000     H
    H   1.0     0.401379     0.882368     0.749269  Biso 1.000000     H
    H   1.0     0.901382     0.882369     0.749276  Biso 1.000000     H
    H   1.0     0.429562     0.996457     0.668184  Biso 1.000000     H
    H   1.0     0.929567     0.996456     0.668191  Biso 1.000000     H
    H   1.0     0.363342     0.945941     0.588274  Biso 1.000000     H
    H   1.0     0.863345     0.945947     0.588283  Biso 1.000000     H
    H   1.0     0.471483     0.897236     0.238700  Biso 1.000000     H
    H   1.0     0.971479     0.897177     0.238695  Biso 1.000000     H
    H   1.0     0.386930     0.895978     0.086413  Biso 1.000000     H
    H   1.0     0.886926     0.895908     0.086407  Biso 1.000000     H
    H   1.0     0.273421     0.882846     0.231407  Biso 1.000000     H
    H   1.0     0.773416     0.882859     0.231408  Biso 1.000000     H
    H   1.0     0.361305     0.887896     0.375187  Biso 1.000000     H
    H   1.0     0.861301     0.887915     0.375188  Biso 1.000000     H
    H   1.0     0.178949     0.871472    -0.010226  Biso 1.000000     H
    H   1.0     0.678945     0.871431    -0.010228  Biso 1.000000     H
    H   1.0     0.208294     0.806235     0.089378  Biso 1.000000     H
    H   1.0     0.708292     0.806225     0.089397  Biso 1.000000     H
    H   1.0     0.204883     0.933092     0.100695  Biso 1.000000     H
    H   1.0     0.704875     0.933085     0.100678  Biso 1.000000     H
    H   1.0     0.336291     0.875642     0.891494  Biso 1.000000     H
    H   1.0     0.836286     0.875646     0.891492  Biso 1.000000     H
    H   1.0     0.307093     0.805798     0.783981  Biso 1.000000     H
    H   1.0     0.807092     0.805826     0.783966  Biso 1.000000     H
    H   1.0     0.305548     0.931274     0.785760  Biso 1.000000     H
    H   1.0     0.805538     0.931303     0.785772  Biso 1.000000     H
    H   1.0     0.234182     0.850574     0.648028  Biso 1.000000     H
    H   1.0     0.734179     0.850581     0.648027  Biso 1.000000     H
    H   1.0     0.142016     0.843522     0.511111  Biso 1.000000     H
    H   1.0     0.642013     0.843533     0.511109  Biso 1.000000     H
    H   1.0     0.042116     0.854915     0.665984  Biso 1.000000     H
    H   1.0     0.542111     0.854879     0.665978  Biso 1.000000     H
    H   1.0     0.130785     0.865573     0.811802  Biso 1.000000     H
    H   1.0     0.630779     0.865532     0.811797  Biso 1.000000     H
    H   1.0     0.093542     0.683269     0.281865  Biso 1.000000     H
    H   1.0     0.593540     0.683279     0.281861  Biso 1.000000     H
    H   1.0     0.026719     0.617689     0.250143  Biso 1.000000     H
    H   1.0     0.526718     0.617695     0.250138  Biso 1.000000     H
    H   1.0     0.095787     0.503674     0.331421  Biso 1.000000     H
    H   1.0     0.595788     0.503683     0.331415  Biso 1.000000     H
    H   1.0     0.069248     0.554100     0.411040  Biso 1.000000     H
    H   1.0     0.569247     0.554103     0.411033  Biso 1.000000     H
    C   1.0     0.189459     0.396091     0.232838  Biso 1.000000     C
    C   1.0     0.689461     0.396117     0.232845  Biso 1.000000     C
    C   1.0     0.194280     0.394514     0.149235  Biso 1.000000     C
    C   1.0     0.694284     0.394534     0.149242  Biso 1.000000     C
    C   1.0     0.249564     0.388674     0.145449  Biso 1.000000     C
    C   1.0     0.749568     0.388669     0.145458  Biso 1.000000     C
    C   1.0     0.297721     0.387720     0.228821  Biso 1.000000     C
    C   1.0     0.797723     0.387700     0.228830  Biso 1.000000     C
    C   1.0     0.289197     0.390271     0.309905  Biso 1.000000     C
    C   1.0     0.789197     0.390260     0.309914  Biso 1.000000     C
    C   1.0     0.256708     0.381077     0.057650  Biso 1.000000     C
    C   1.0     0.756713     0.381065     0.057660  Biso 1.000000     C
    C   1.0     0.316943     0.372055     0.059384  Biso 1.000000     C
    C   1.0     0.816947     0.372024     0.059395  Biso 1.000000     C
    C   1.0     0.109637     0.370795     0.823009  Biso 1.000000     C
    C   1.0     0.609643     0.370745     0.823020  Biso 1.000000     C
    C   1.0     0.170888     0.368017     0.828727  Biso 1.000000     C
    C   1.0     0.670894     0.368000     0.828737  Biso 1.000000     C
    C   1.0     0.181223     0.360849     0.743391  Biso 1.000000     C
    C   1.0     0.681229     0.360843     0.743400  Biso 1.000000     C
    C   1.0     0.135351     0.354252     0.656969  Biso 1.000000     C
    C   1.0     0.635356     0.354240     0.656979  Biso 1.000000     C
    C   1.0     0.148179     0.350325     0.579281  Biso 1.000000     C
    C   1.0     0.648183     0.350322     0.579291  Biso 1.000000     C
    C   1.0     0.247249     0.355866     0.666314  Biso 1.000000     C
    C   1.0     0.747253     0.355885     0.666321  Biso 1.000000     C
    C   1.0     0.238367     0.360650     0.746644  Biso 1.000000     C
    C   1.0     0.738372     0.360660     0.746652  Biso 1.000000     C
    C   1.0     0.136875     0.229272     0.355041  Biso 1.000000     C
    C   1.0     0.636877     0.229273     0.355047  Biso 1.000000     C
    C   1.0     0.090256     0.150217     0.309289  Biso 1.000000     C
    C   1.0     0.590259     0.150217     0.309296  Biso 1.000000     C
    C   1.0     0.091059     0.070906     0.371163  Biso 1.000000     C
    C   1.0     0.591062     0.070906     0.371170  Biso 1.000000     C
    C   1.0     0.062375     0.097861     0.437367  Biso 1.000000     C
    C   1.0     0.562376     0.097861     0.437371  Biso 1.000000     C
    C   1.0     0.073515     0.103744     0.767063  Biso 1.000000     C
    C   1.0     0.573511     0.103700     0.767057  Biso 1.000000     C
    C   1.0     0.120136     0.105346     0.850724  Biso 1.000000     C
    C   1.0     0.620132     0.105295     0.850719  Biso 1.000000     C
    C   1.0     0.177337     0.111353     0.854679  Biso 1.000000     C
    C   1.0     0.677333     0.111325     0.854676  Biso 1.000000     C
    C   1.0     0.183837     0.112492     0.771389  Biso 1.000000     C
    C   1.0     0.683833     0.112487     0.771388  Biso 1.000000     C
    C   1.0     0.134766     0.109987     0.690228  Biso 1.000000     C
    C   1.0     0.634762     0.109987     0.690227  Biso 1.000000     C
    C   1.0     0.228340     0.118906     0.942578  Biso 1.000000     C
    C   1.0     0.728335     0.118877     0.942575  Biso 1.000000     C
    C   1.0     0.287775     0.127501     0.941095  Biso 1.000000     C
    C   1.0     0.787771     0.127475     0.941094  Biso 1.000000     C
    C   1.0     0.198289     0.129632     0.176854  Biso 1.000000     C
    C   1.0     0.698284     0.129649     0.176851  Biso 1.000000     C
    C   1.0     0.256747     0.132289     0.171391  Biso 1.000000     C
    C   1.0     0.756741     0.132278     0.171389  Biso 1.000000     C
    C   1.0     0.309714     0.139445     0.256837  Biso 1.000000     C
    C   1.0     0.809708     0.139432     0.256834  Biso 1.000000     C
    C   1.0     0.306991     0.146150     0.343185  Biso 1.000000     C
    C   1.0     0.806986     0.146150     0.343182  Biso 1.000000     C
    C   1.0     0.358649     0.150163     0.420983  Biso 1.000000     C
    C   1.0     0.858645     0.150163     0.420980  Biso 1.000000     C
    C   1.0     0.414307     0.144408     0.334198  Biso 1.000000     C
    C   1.0     0.914302     0.144382     0.334194  Biso 1.000000     C
    C   1.0     0.365279     0.139539     0.253773  Biso 1.000000     C
    C   1.0     0.865274     0.139511     0.253769  Biso 1.000000     C
    C   1.0     0.459542     0.270702     0.645649  Biso 1.000000     C
    C   1.0     0.959539     0.270706     0.645644  Biso 1.000000     C
    C   1.0     0.435682     0.349805     0.691358  Biso 1.000000     C
    C   1.0     0.935681     0.349812     0.691354  Biso 1.000000     C
    C   1.0     0.405402     0.429057     0.629378  Biso 1.000000     C
    C   1.0     0.905401     0.429065     0.629373  Biso 1.000000     C
    C   1.0     0.343688     0.402067     0.562920  Biso 1.000000     C
    C   1.0     0.843688     0.402074     0.562916  Biso 1.000000     C
    C   1.0     0.310541     0.603936     0.767190  Biso 1.000000     C
    C   1.0     0.810542     0.603959     0.767196  Biso 1.000000     C
    C   1.0     0.305718     0.605521     0.850793  Biso 1.000000     C
    C   1.0     0.805722     0.605536     0.850800  Biso 1.000000     C
    C   1.0     0.250434     0.611383     0.854577  Biso 1.000000     C
    C   1.0     0.750438     0.611377     0.854586  Biso 1.000000     C
    C   1.0     0.202279     0.612350     0.771205  Biso 1.000000     C
    C   1.0     0.702280     0.612330     0.771214  Biso 1.000000     C
    C   1.0     0.210804     0.609789     0.690121  Biso 1.000000     C
    C   1.0     0.710804     0.609780     0.690130  Biso 1.000000     C
    C   1.0     0.243289     0.618984     0.942374  Biso 1.000000     C
    C   1.0     0.743293     0.618973     0.942384  Biso 1.000000     C
    C   1.0     0.183054     0.628023     0.940638  Biso 1.000000     C
    C   1.0     0.683058     0.627995     0.940649  Biso 1.000000     C
    C   1.0     0.390359     0.629306     0.177015  Biso 1.000000     C
    C   1.0     0.890364     0.629257     0.177026  Biso 1.000000     C
    C   1.0     0.329107     0.632050     0.171298  Biso 1.000000     C
    C   1.0     0.829113     0.632034     0.171308  Biso 1.000000     C
    C   1.0     0.318772     0.639206     0.256634  Biso 1.000000     C
    C   1.0     0.818778     0.639201     0.256644  Biso 1.000000     C
    C   1.0     0.364645     0.645810     0.343055  Biso 1.000000     C
    C   1.0     0.864649     0.645798     0.343066  Biso 1.000000     C
    C   1.0     0.351817     0.649728     0.420743  Biso 1.000000     C
    C   1.0     0.851821     0.649724     0.420753  Biso 1.000000     C
    C   1.0     0.252748     0.644163     0.333712  Biso 1.000000     C
    C   1.0     0.752752     0.644183     0.333720  Biso 1.000000     C
    C   1.0     0.261629     0.639389     0.253381  Biso 1.000000     C
    C   1.0     0.761634     0.639400     0.253390  Biso 1.000000     C
    C   1.0     0.363122     0.770777     0.644984  Biso 1.000000     C
    C   1.0     0.863124     0.770778     0.644991  Biso 1.000000     C
    C   1.0     0.409739     0.849838     0.690732  Biso 1.000000     C
    C   1.0     0.909741     0.849838     0.690739  Biso 1.000000     C
    C   1.0     0.408934     0.929148     0.628855  Biso 1.000000     C
    C   1.0     0.908937     0.929148     0.628863  Biso 1.000000     C
    C   1.0     0.437622     0.902192     0.562656  Biso 1.000000     C
    C   1.0     0.937622     0.902192     0.562661  Biso 1.000000     C
    C   1.0     0.426488     0.896352     0.232972  Biso 1.000000     C
    C   1.0     0.926484     0.896309     0.232967  Biso 1.000000     C
    C   1.0     0.379867     0.894756     0.149311  Biso 1.000000     C
    C   1.0     0.879862     0.894706     0.149306  Biso 1.000000     C
    C   1.0     0.322666     0.888725     0.145354  Biso 1.000000     C
    C   1.0     0.822662     0.888697     0.145351  Biso 1.000000     C
    C   1.0     0.316167     0.887559     0.228642  Biso 1.000000     C
    C   1.0     0.816162     0.887556     0.228641  Biso 1.000000     C
    C   1.0     0.365237     0.890062     0.309803  Biso 1.000000     C
    C   1.0     0.865233     0.890061     0.309802  Biso 1.000000     C
    C   1.0     0.271663     0.881174     0.057455  Biso 1.000000     C
    C   1.0     0.771658     0.881146     0.057453  Biso 1.000000     C
    C   1.0     0.212227     0.872576     0.058935  Biso 1.000000     C
    C   1.0     0.712223     0.872555     0.058935  Biso 1.000000     C
    C   1.0     0.301714     0.870407     0.823178  Biso 1.000000     C
    C   1.0     0.801709     0.870419     0.823176  Biso 1.000000     C
    C   1.0     0.243256     0.867774     0.828641  Biso 1.000000     C
    C   1.0     0.743251     0.867761     0.828639  Biso 1.000000     C
    C   1.0     0.190289     0.860621     0.743197  Biso 1.000000     C
    C   1.0     0.690285     0.860605     0.743194  Biso 1.000000     C
    C   1.0     0.193011     0.853902     0.656848  Biso 1.000000     C
    C   1.0     0.693008     0.853899     0.656846  Biso 1.000000     C
    C   1.0     0.141352     0.849888     0.579051  Biso 1.000000     C
    C   1.0     0.641349     0.849888     0.579048  Biso 1.000000     C
    C   1.0     0.085696     0.855672     0.665837  Biso 1.000000     C
    C   1.0     0.585691     0.855646     0.665832  Biso 1.000000     C
    C   1.0     0.134724     0.860542     0.746262  Biso 1.000000     C
    C   1.0     0.634719     0.860513     0.746258  Biso 1.000000     C
    C   1.0     0.040461     0.729340     0.354388  Biso 1.000000     C
    C   1.0     0.540457     0.729344     0.354383  Biso 1.000000     C
    C   1.0     0.064320     0.650238     0.308679  Biso 1.000000     C
    C   1.0     0.564319     0.650245     0.308674  Biso 1.000000     C
    C   1.0     0.094599     0.570986     0.370663  Biso 1.000000     C
    C   1.0     0.594598     0.570994     0.370657  Biso 1.000000     C
    C   1.0     0.156312     0.597977     0.437119  Biso 1.000000     C
    C   1.0     0.656312     0.597984     0.437115  Biso 1.000000     C
    N   1.0     0.236088     0.393222     0.312529  Biso 1.000000     N
    N   1.0     0.736088     0.393234     0.312535  Biso 1.000000     N
    N   1.0     0.208815     0.380784     0.984074  Biso 1.000000     N
    N   1.0     0.708821     0.380780     0.984084  Biso 1.000000     N
    N   1.0     0.217948     0.372005     0.903845  Biso 1.000000     N
    N   1.0     0.717954     0.372005     0.903855  Biso 1.000000     N
    N   1.0     0.203077     0.351962     0.583436  Biso 1.000000     N
    N   1.0     0.703081     0.351975     0.583444  Biso 1.000000     N
    N   1.0     0.080313     0.106827     0.687454  Biso 1.000000     N
    N   1.0     0.580310     0.106813     0.687451  Biso 1.000000     N
    N   1.0     0.217142     0.119474     0.016040  Biso 1.000000     N
    N   1.0     0.717137     0.119446     0.016037  Biso 1.000000     N
    N   1.0     0.266334     0.128221     0.096383  Biso 1.000000     N
    N   1.0     0.766329     0.128191     0.096380  Biso 1.000000     N
    N   1.0     0.411525     0.148515     0.417009  Biso 1.000000     N
    N   1.0     0.911520     0.148502     0.417005  Biso 1.000000     N
    N   1.0     0.263914     0.606811     0.687499  Biso 1.000000     N
    N   1.0     0.763914     0.606827     0.687506  Biso 1.000000     N
    N   1.0     0.291181     0.619278     0.015951  Biso 1.000000     N
    N   1.0     0.791186     0.619269     0.015961  Biso 1.000000     N
    N   1.0     0.282047     0.628047     0.096179  Biso 1.000000     N
    N   1.0     0.782053     0.628047     0.096189  Biso 1.000000     N
    N   1.0     0.296920     0.648072     0.416589  Biso 1.000000     N
    N   1.0     0.796923     0.648086     0.416598  Biso 1.000000     N
    N   1.0     0.419690     0.893246     0.312579  Biso 1.000000     N
    N   1.0     0.919686     0.893224     0.312577  Biso 1.000000     N
    N   1.0     0.282862     0.880601     0.983993  Biso 1.000000     N
    N   1.0     0.782857     0.880566     0.983990  Biso 1.000000     N
    N   1.0     0.233669     0.871854     0.903650  Biso 1.000000     N
    N   1.0     0.733665     0.871820     0.903647  Biso 1.000000     N
    N   1.0     0.088477     0.851548     0.583026  Biso 1.000000     N
    N   1.0     0.588474     0.851540     0.583022  Biso 1.000000     N
    O   1.0     0.189233     0.203863     0.397360  Biso 1.000000     O
    O   1.0     0.689234     0.203865     0.397371  Biso 1.000000     O
    O   1.0     0.122637     0.316784     0.347859  Biso 1.000000     O
    O   1.0     0.622638     0.316785     0.347858  Biso 1.000000     O
    O   1.0     0.058465     0.184681     0.461807  Biso 1.000000     O
    O   1.0     0.558469     0.184681     0.461816  Biso 1.000000     O
    O   1.0     0.042015     0.029711     0.467769  Biso 1.000000     O
    O   1.0     0.542011     0.029711     0.467766  Biso 1.000000     O
    O   1.0     0.490768     0.296092     0.603507  Biso 1.000000     O
    O   1.0     0.990763     0.296092     0.603500  Biso 1.000000     O
    O   1.0     0.448947     0.183196     0.652626  Biso 1.000000     O
    O   1.0     0.948944     0.183201     0.652625  Biso 1.000000     O
    O   1.0     0.327562     0.315216     0.539161  Biso 1.000000     O
    O   1.0     0.827565     0.315223     0.539146  Biso 1.000000     O
    O   1.0     0.308191     0.470267     0.531552  Biso 1.000000     O
    O   1.0     0.808188     0.470273     0.531557  Biso 1.000000     O
    O   1.0     0.310765     0.796179     0.602657  Biso 1.000000     O
    O   1.0     0.810765     0.796182     0.602671  Biso 1.000000     O
    O   1.0     0.377362     0.683265     0.652177  Biso 1.000000     O
    O   1.0     0.877364     0.683266     0.652175  Biso 1.000000     O
    O   1.0     0.441528     0.815373     0.538212  Biso 1.000000     O
    O   1.0     0.941530     0.815373     0.538219  Biso 1.000000     O
    O   1.0     0.457988     0.970340     0.532262  Biso 1.000000     O
    O   1.0     0.957984     0.970341     0.532261  Biso 1.000000     O
    O   1.0     0.009236     0.703949     0.396531  Biso 1.000000     O
    O   1.0     0.509231     0.703951     0.396522  Biso 1.000000     O
    O   1.0     0.051054     0.816845     0.347406  Biso 1.000000     O
    O   1.0     0.551051     0.816850     0.347404  Biso 1.000000     O
    O   1.0     0.172436     0.684828     0.460889  Biso 1.000000     O
    O   1.0     0.672439     0.684835     0.460876  Biso 1.000000     O
    O   1.0     0.191811     0.529776     0.468476  Biso 1.000000     O
    O   1.0     0.691807     0.529782     0.468480  Biso 1.000000     O
   Cd   1.0     0.222864     0.367539     0.450636  Biso 1.000000    Cd
   Cd   1.0     0.722862     0.367546     0.450639  Biso 1.000000    Cd
   Cd   1.0     0.497760     0.132504     0.549716  Biso 1.000000    Cd
   Cd   1.0     0.997757     0.132505     0.549715  Biso 1.000000    Cd
   Cd   1.0     0.277138     0.632504     0.549394  Biso 1.000000    Cd
   Cd   1.0     0.777135     0.632511     0.549397  Biso 1.000000    Cd
   Cd   1.0     0.002242     0.867546     0.450315  Biso 1.000000    Cd
   Cd   1.0     0.502239     0.867547     0.450313  Biso 1.000000    Cd
