#======================================================================

# CRYSTAL DATA

#----------------------------------------------------------------------

data_VESTA_phase_1


_pd_phase_name                         MOF
_cell_length_a                         8.96800
_cell_length_b                         17.26100
_cell_length_c                         15.78500
_cell_angle_alpha                      90.07700
_cell_angle_beta                       89.98800
_cell_angle_gamma                      89.66500
_symmetry_space_group_name_H-M         "P 1"
_symmetry_Int_Tables_number            1

loop_
_symmetry_equiv_pos_as_xyz
   "x, y, z"

loop_
   _atom_site_label
   _atom_site_occupancy
   _atom_site_fract_x
   _atom_site_fract_y
   _atom_site_fract_z
   _atom_site_adp_type
   _atom_site_B_iso_or_equiv
   _atom_site_type_symbol
    H   1.0     0.289808     0.284998     0.236662  Biso 1.000000     H
    H   1.0     0.789799     0.285000     0.236663  Biso 1.000000     H
    H   1.0     0.195311     0.376144     0.237489  Biso 1.000000     H
    H   1.0     0.695303     0.376146     0.237490  Biso 1.000000     H
    H   1.0     0.083813     0.274593     0.915970  Biso 1.000000     H
    H   1.0     0.583795     0.274591     0.915968  Biso 1.000000     H
    H   1.0     0.074149     0.213665     0.000000  Biso 1.000000     H
    H   1.0     0.574132     0.213662     0.000000  Biso 1.000000     H
    H   1.0     0.221091     0.536153     0.003746  Biso 1.000000     H
    H   1.0     0.721086     0.536156     0.003748  Biso 1.000000     H
    H   1.0     0.320716     0.505134     0.911750  Biso 1.000000     H
    H   1.0     0.820711     0.505137     0.911752  Biso 1.000000     H
    H   1.0     0.203493     0.714375     0.736798  Biso 1.000000     H
    H   1.0     0.703479     0.714375     0.736798  Biso 1.000000     H
    H   1.0     0.297579     0.623101     0.737598  Biso 1.000000     H
    H   1.0     0.797565     0.623101     0.737599  Biso 1.000000     H
    H   1.0     0.411446     0.724273     0.415416  Biso 1.000000     H
    H   1.0     0.911435     0.724273     0.415415  Biso 1.000000     H
    H   1.0     0.420985     0.785502     0.506359  Biso 1.000000     H
    H   1.0     0.920975     0.785502     0.506358  Biso 1.000000     H
    H   1.0     0.272511     0.462526     0.504007  Biso 1.000000     H
    H   1.0     0.772495     0.462525     0.504007  Biso 1.000000     H
    H   1.0     0.172902     0.493255     0.411982  Biso 1.000000     H
    H   1.0     0.672886     0.493255     0.411982  Biso 1.000000     H
    H   1.0     0.455477     0.783848     0.236040  Biso 1.000000     H
    H   1.0     0.955465     0.783846     0.236040  Biso 1.000000     H
    H   1.0     0.050109     0.874340     0.236903  Biso 1.000000     H
    H   1.0     0.550096     0.874341     0.236904  Biso 1.000000     H
    H   1.0     0.161394     0.776152     0.915236  Biso 1.000000     H
    H   1.0     0.661381     0.776151     0.915235  Biso 1.000000     H
    H   1.0     0.171365     0.714876     0.000000  Biso 1.000000     H
    H   1.0     0.671352     0.714875     0.000000  Biso 1.000000     H
    H   1.0     0.022843     0.035683     0.004409  Biso 1.000000     H
    H   1.0     0.522830     0.035685     0.004409  Biso 1.000000     H
    H   1.0     0.422853     0.005725     0.912407  Biso 1.000000     H
    H   1.0     0.922842     0.005723     0.912406  Biso 1.000000     H
    H   1.0     0.039699     0.215208     0.736573  Biso 1.000000     H
    H   1.0     0.539685     0.215208     0.736573  Biso 1.000000     H
    H   1.0     0.445285     0.124664     0.737258  Biso 1.000000     H
    H   1.0     0.945274     0.124664     0.737258  Biso 1.000000     H
    H   1.0     0.330994     0.223522     0.414913  Biso 1.000000     H
    H   1.0     0.830980     0.223522     0.414913  Biso 1.000000     H
    H   1.0     0.321305     0.284802     0.505853  Biso 1.000000     H
    H   1.0     0.821291     0.284803     0.505854  Biso 1.000000     H
    H   1.0     0.471512     0.963484     0.504140  Biso 1.000000     H
    H   1.0     0.971501     0.963484     0.504140  Biso 1.000000     H
    H   1.0     0.071121     0.993516     0.412067  Biso 1.000000     H
    H   1.0     0.571109     0.993516     0.412067  Biso 1.000000     H
    C   1.0     0.449789     0.313202     0.012563  Biso 1.000000     C
    C   1.0     0.949776     0.313202     0.012563  Biso 1.000000     C
    C   1.0     0.310453     0.350244     0.129387  Biso 1.000000     C
    C   1.0     0.810441     0.350245     0.129388  Biso 1.000000     C
    C   1.0     0.322752     0.430161     0.011859  Biso 1.000000     C
    C   1.0     0.822743     0.430163     0.011860  Biso 1.000000     C
    C   1.0     0.044563     0.685762     0.512348  Biso 1.000000     C
    C   1.0     0.544550     0.685763     0.512348  Biso 1.000000     C
    C   1.0     0.183241     0.648995     0.629367  Biso 1.000000     C
    C   1.0     0.683227     0.648995     0.629367  Biso 1.000000     C
    C   1.0     0.171061     0.568638     0.511927  Biso 1.000000     C
    C   1.0     0.671046     0.568638     0.511927  Biso 1.000000     C
    C   1.0     0.295031     0.813799     0.012066  Biso 1.000000     C
    C   1.0     0.795017     0.813799     0.012066  Biso 1.000000     C
    C   1.0     0.434753     0.849415     0.128889  Biso 1.000000     C
    C   1.0     0.934740     0.849414     0.128888  Biso 1.000000     C
    C   1.0     0.421767     0.930066     0.011871  Biso 1.000000     C
    C   1.0     0.921754     0.930065     0.011871  Biso 1.000000     C
    C   1.0     0.198046     0.185753     0.511925  Biso 1.000000     C
    C   1.0     0.698034     0.185753     0.511925  Biso 1.000000     C
    C   1.0     0.059373     0.149926     0.628971  Biso 1.000000     C
    C   1.0     0.559361     0.149926     0.628972  Biso 1.000000     C
    C   1.0     0.071990     0.069274     0.511684  Biso 1.000000     C
    C   1.0     0.571978     0.069274     0.511684  Biso 1.000000     C
    N   1.0     0.412443     0.378939     0.969747  Biso 1.000000     N
    N   1.0     0.912438     0.378942     0.969749  Biso 1.000000     N
    N   1.0     0.256103     0.334597     0.206249  Biso 1.000000     N
    N   1.0     0.756088     0.334597     0.206249  Biso 1.000000     N
    N   1.0     0.400091     0.296088     0.091952  Biso 1.000000     N
    N   1.0     0.900085     0.296091     0.091954  Biso 1.000000     N
    N   1.0     0.271776     0.418843     0.092400  Biso 1.000000     N
    N   1.0     0.771769     0.418845     0.092401  Biso 1.000000     N
    N   1.0     0.039972     0.261960     0.974380  Biso 1.000000     N
    N   1.0     0.539958     0.261959     0.974379  Biso 1.000000     N
    N   1.0     0.281354     0.494788     0.971695  Biso 1.000000     N
    N   1.0     0.781343     0.494789     0.971695  Biso 1.000000     N
    N   1.0     0.081435     0.619712     0.469721  Biso 1.000000     N
    N   1.0     0.581421     0.619712     0.469722  Biso 1.000000     N
    N   1.0     0.237151     0.664698     0.706358  Biso 1.000000     N
    N   1.0     0.737137     0.664698     0.706358  Biso 1.000000     N
    N   1.0     0.094023     0.703136     0.591785  Biso 1.000000     N
    N   1.0     0.594009     0.703136     0.591785  Biso 1.000000     N
    N   1.0     0.222040     0.580286     0.592423  Biso 1.000000     N
    N   1.0     0.722026     0.580286     0.592423  Biso 1.000000     N
    N   1.0     0.455066     0.737040     0.473885  Biso 1.000000     N
    N   1.0     0.955055     0.737040     0.473884  Biso 1.000000     N
    N   1.0     0.212391     0.503826     0.471862  Biso 1.000000     N
    N   1.0     0.712375     0.503826     0.471863  Biso 1.000000     N
    N   1.0     0.331898     0.879611     0.969613  Biso 1.000000     N
    N   1.0     0.831887     0.879610     0.969612  Biso 1.000000     N
    N   1.0     0.489758     0.833089     0.205523  Biso 1.000000     N
    N   1.0     0.989744     0.833088     0.205523  Biso 1.000000     N
    N   1.0     0.344822     0.796041     0.091363  Biso 1.000000     N
    N   1.0     0.844810     0.796040     0.091362  Biso 1.000000     N
    N   1.0     0.473368     0.917912     0.092174  Biso 1.000000     N
    N   1.0     0.973356     0.917911     0.092173  Biso 1.000000     N
    N   1.0     0.205227     0.763131     0.973622  Biso 1.000000     N
    N   1.0     0.705212     0.763131     0.973622  Biso 1.000000     N
    N   1.0     0.462877     0.994710     0.972108  Biso 1.000000     N
    N   1.0     0.962863     0.994710     0.972108  Biso 1.000000     N
    N   1.0     0.161423     0.119848     0.469393  Biso 1.000000     N
    N   1.0     0.661409     0.119849     0.469393  Biso 1.000000     N
    N   1.0     0.005042     0.166072     0.705863  Biso 1.000000     N
    N   1.0     0.505031     0.166071     0.705864  Biso 1.000000     N
    N   1.0     0.148706     0.203449     0.591384  Biso 1.000000     N
    N   1.0     0.648691     0.203449     0.591384  Biso 1.000000     N
    N   1.0     0.020649     0.081425     0.592090  Biso 1.000000     N
    N   1.0     0.520635     0.081425     0.592089  Biso 1.000000     N
    N   1.0     0.287155     0.236601     0.473335  Biso 1.000000     N
    N   1.0     0.787143     0.236600     0.473335  Biso 1.000000     N
    N   1.0     0.031154     0.004533     0.471824  Biso 1.000000     N
    N   1.0     0.531144     0.004532     0.471825  Biso 1.000000     N
   Cl   1.0     0.414026     0.175169     0.291843  Biso 1.000000    Cl
   Cl   1.0     0.914012     0.175169     0.291844  Biso 1.000000    Cl
   Cl   1.0     0.141462     0.116848     0.098849  Biso 1.000000    Cl
   Cl   1.0     0.641453     0.116849     0.098849  Biso 1.000000    Cl
   Cl   1.0     0.201270     0.981575     0.283124  Biso 1.000000    Cl
   Cl   1.0     0.701259     0.981575     0.283124  Biso 1.000000    Cl
   Cl   1.0     0.079700     0.824379     0.791833  Biso 1.000000    Cl
   Cl   1.0     0.579685     0.824380     0.791833  Biso 1.000000    Cl
   Cl   1.0     0.352827     0.882512     0.598476  Biso 1.000000    Cl
   Cl   1.0     0.852815     0.882512     0.598476  Biso 1.000000    Cl
   Cl   1.0     0.293225     0.017766     0.783287  Biso 1.000000    Cl
   Cl   1.0     0.793212     0.017766     0.783287  Biso 1.000000    Cl
   Cl   1.0     0.328567     0.676109     0.291991  Biso 1.000000    Cl
   Cl   1.0     0.828555     0.676108     0.291991  Biso 1.000000    Cl
   Cl   1.0     0.102367     0.618744     0.098279  Biso 1.000000    Cl
   Cl   1.0     0.602351     0.618745     0.098280  Biso 1.000000    Cl
   Cl   1.0     0.043359     0.482461     0.282636  Biso 1.000000    Cl
   Cl   1.0     0.543344     0.482461     0.282635  Biso 1.000000    Cl
   Cl   1.0     0.167029     0.322577     0.792332  Biso 1.000000    Cl
   Cl   1.0     0.667019     0.322578     0.792333  Biso 1.000000    Cl
   Cl   1.0     0.391727     0.380571     0.598177  Biso 1.000000    Cl
   Cl   1.0     0.891714     0.380572     0.598177  Biso 1.000000    Cl
   Cl   1.0     0.449726     0.515585     0.783062  Biso 1.000000    Cl
   Cl   1.0     0.949714     0.515585     0.783062  Biso 1.000000    Cl
   Cu   1.0     0.462958     0.199617     0.151837  Biso 1.000000    Cu
   Cu   1.0     0.962946     0.199618     0.151838  Biso 1.000000    Cu
   Cu   1.0     0.088582    -0.002985     0.155474  Biso 1.000000    Cu
   Cu   1.0     0.588572    -0.002984     0.155474  Biso 1.000000    Cu
   Cu   1.0     0.236682     0.096631     0.352264  Biso 1.000000    Cu
   Cu   1.0     0.736669     0.096631     0.352264  Biso 1.000000    Cu
   Cu   1.0     0.031116     0.799990     0.651695  Biso 1.000000    Cu
   Cu   1.0     0.531102     0.799990     0.651695  Biso 1.000000    Cu
   Cu   1.0     0.405411     0.000000     0.655420  Biso 1.000000    Cu
   Cu   1.0     0.905399     0.000000     0.655420  Biso 1.000000    Cu
   Cu   1.0     0.257000     0.903058     0.852448  Biso 1.000000    Cu
   Cu   1.0     0.756987     0.903058     0.852447  Biso 1.000000    Cu
   Cu   1.0     0.281215     0.700004     0.151617  Biso 1.000000    Cu
   Cu   1.0     0.781202     0.700004     0.151617  Biso 1.000000    Cu
   Cu   1.0     0.156301     0.499363     0.155210  Biso 1.000000    Cu
   Cu   1.0     0.656288     0.499363     0.155210  Biso 1.000000    Cu
   Cu   1.0     0.006603     0.596957     0.352540  Biso 1.000000    Cu
   Cu   1.0     0.506590     0.596957     0.352540  Biso 1.000000    Cu
   Cu   1.0     0.212702     0.299660     0.651603  Biso 1.000000    Cu
   Cu   1.0     0.712689     0.299660     0.651603  Biso 1.000000    Cu
   Cu   1.0     0.337503     0.500208     0.655350  Biso 1.000000    Cu
   Cu   1.0     0.837490     0.500208     0.655350  Biso 1.000000    Cu
   Cu   1.0     0.487129     0.400568     0.852401  Biso 1.000000    Cu
   Cu   1.0     0.987118     0.400569     0.852401  Biso 1.000000    Cu
