#======================================================================

# CRYSTAL DATA

#----------------------------------------------------------------------

data_VESTA_phase_1


_pd_phase_name                         MOF
_cell_length_a                         15.47000
_cell_length_b                         17.45600
_cell_length_c                         17.45500
_cell_angle_alpha                      79.15600
_cell_angle_beta                       64.30100
_cell_angle_gamma                      64.30200
_symmetry_space_group_name_H-M         "P 1"
_symmetry_Int_Tables_number            1

loop_
_symmetry_equiv_pos_as_xyz
   "x, y, z"

loop_
   _atom_site_label
   _atom_site_occupancy
   _atom_site_fract_x
   _atom_site_fract_y
   _atom_site_fract_z
   _atom_site_adp_type
   _atom_site_B_iso_or_equiv
   _atom_site_type_symbol
    H   1.0     0.968100     0.857397     0.957502  Biso 1.000000     H
    H   1.0     0.052294     0.699974     0.956990  Biso 1.000000     H
    H   1.0     0.093109     0.579708     0.886649  Biso 1.000000     H
    H   1.0     0.785626     0.144937     0.042382  Biso 1.000000     H
    H   1.0     0.712004     0.302701     0.042905  Biso 1.000000     H
    H   1.0     0.562619     0.422946     0.112942  Biso 1.000000     H
    H   1.0     0.925789     0.043406     0.857432  Biso 1.000000     H
    H   1.0     0.000000     0.043926     0.699988  Biso 1.000000     H
    H   1.0     0.981943     0.113501     0.579668  Biso 1.000000     H
    H   1.0     0.826951     0.958468     0.144931  Biso 1.000000     H
    H   1.0     0.753818     0.957997     0.302695  Biso 1.000000     H
    H   1.0     0.673239     0.887198     0.422927  Biso 1.000000     H
    H   1.0     0.714471     0.957573     0.855081  Biso 1.000000     H
    H   1.0     0.788117     0.957045     0.697306  Biso 1.000000     H
    H   1.0     0.937465     0.887035     0.577087  Biso 1.000000     H
    H   1.0     0.531881     0.042521     0.142567  Biso 1.000000     H
    H   1.0     0.447663     0.043031     0.300000  Biso 1.000000     H
    H   1.0     0.406888     0.113380     0.420306  Biso 1.000000     H
    H   1.0     0.673035     0.855056     0.041512  Biso 1.000000     H
    H   1.0     0.746156     0.697303     0.041973  Biso 1.000000     H
    H   1.0     0.826734     0.577040     0.112768  Biso 1.000000     H
    H   1.0     0.574237     0.142595     0.956627  Biso 1.000000     H
    H   1.0     0.490527     0.300031     0.956103  Biso 1.000000     H
    H   1.0     0.518106     0.420307     0.886505  Biso 1.000000     H
    H   1.0     0.031913     0.142595     0.042504  Biso 1.000000     H
    H   1.0     0.947719     0.300019     0.043027  Biso 1.000000     H
    H   1.0     0.906908     0.420284     0.113373  Biso 1.000000     H
    H   1.0     0.214388     0.855052     0.957634  Biso 1.000000     H
    H   1.0     0.288005     0.697289     0.957121  Biso 1.000000     H
    H   1.0     0.437394     0.577046     0.887077  Biso 1.000000     H
    H   1.0     0.074228     0.956586     0.142573  Biso 1.000000     H
    H   1.0    -0.009495     0.956059     0.300017  Biso 1.000000     H
    H   1.0     0.018084     0.886481     0.420335  Biso 1.000000     H
    H   1.0     0.173073     0.041522     0.855073  Biso 1.000000     H
    H   1.0     0.246207     0.041992     0.697309  Biso 1.000000     H
    H   1.0     0.326784     0.112788     0.577076  Biso 1.000000     H
    H   1.0     0.285546     0.042419     0.144923  Biso 1.000000     H
    H   1.0     0.211907     0.042940     0.302697  Biso 1.000000     H
    H   1.0     0.062563     0.112946     0.422917  Biso 1.000000     H
    H   1.0     0.468142     0.957471     0.857438  Biso 1.000000     H
    H   1.0     0.552361     0.956959     0.700004  Biso 1.000000     H
    H   1.0     0.593136     0.886607     0.579697  Biso 1.000000     H
    H   1.0     0.326980     0.144934     0.958490  Biso 1.000000     H
    H   1.0     0.253859     0.302686     0.958038  Biso 1.000000     H
    H   1.0     0.173282     0.422952     0.887255  Biso 1.000000     H
    H   1.0     0.425790     0.857397     0.043373  Biso 1.000000     H
    H   1.0     0.509495     0.699962     0.043904  Biso 1.000000     H
    H   1.0     0.481908     0.579685     0.113513  Biso 1.000000     H
    C   1.0     0.921505     0.819647     0.975578  Biso 1.000000     C
    C   1.0     0.968105     0.731407     0.974887  Biso 1.000000     C
    C   1.0     0.052683     0.544945     0.937307  Biso 1.000000     C
    C   1.0     0.719852     0.181729     0.023953  Biso 1.000000     C
    C   1.0     0.677651     0.270072     0.024585  Biso 1.000000     C
    C   1.0     0.536664     0.456556     0.062490  Biso 1.000000     C
    C   1.0     0.897222     0.024941     0.819665  Biso 1.000000     C
    C   1.0     0.943170     0.025608     0.731421  Biso 1.000000     C
    C   1.0     0.991193     0.062783     0.544931  Biso 1.000000     C
    C   1.0     0.743202     0.976530     0.181703  Biso 1.000000     C
    C   1.0     0.701617     0.975913     0.270055  Biso 1.000000     C
    C   1.0     0.597867     0.937587     0.456549  Biso 1.000000     C
    C   1.0     0.780235     0.976015     0.818290  Biso 1.000000     C
    C   1.0     0.822452     0.975378     0.729942  Biso 1.000000     C
    C   1.0     0.963404     0.937490     0.543463  Biso 1.000000     C
    C   1.0     0.578472     0.024437     0.180323  Biso 1.000000     C
    C   1.0     0.531863     0.025127     0.268569  Biso 1.000000     C
    C   1.0     0.447318     0.062714     0.455059  Biso 1.000000     C
    C   1.0     0.756783     0.818284     0.023452  Biso 1.000000     C
    C   1.0     0.798362     0.729937     0.024065  Biso 1.000000     C
    C   1.0     0.902130     0.543435     0.062390  Biso 1.000000     C
    C   1.0     0.602821     0.180355     0.975079  Biso 1.000000     C
    C   1.0     0.556886     0.268593     0.974405  Biso 1.000000     C
    C   1.0     0.508850     0.455053     0.937221  Biso 1.000000     C
    C   1.0     0.078513     0.180340     0.024434  Biso 1.000000     C
    C   1.0     0.031908     0.268580     0.025128  Biso 1.000000     C
    C   1.0     0.947328     0.455046     0.062709  Biso 1.000000     C
    C   1.0     0.280163     0.818262     0.976062  Biso 1.000000     C
    C   1.0     0.322361     0.729918     0.975434  Biso 1.000000     C
    C   1.0     0.463349     0.543436     0.937529  Biso 1.000000     C
    C   1.0     0.102796     0.975049     0.180339  Biso 1.000000     C
    C   1.0     0.056852     0.974378     0.268583  Biso 1.000000     C
    C   1.0     0.008834     0.937198     0.455073  Biso 1.000000     C
    C   1.0     0.256823     0.023456     0.818297  Biso 1.000000     C
    C   1.0     0.298413     0.024075     0.729945  Biso 1.000000     C
    C   1.0     0.402162     0.062405     0.543455  Biso 1.000000     C
    C   1.0     0.219784     0.023975     0.181714  Biso 1.000000     C
    C   1.0     0.177570     0.024609     0.270062  Biso 1.000000     C
    C   1.0     0.036623     0.062492     0.456541  Biso 1.000000     C
    C   1.0     0.421548     0.975550     0.819686  Biso 1.000000     C
    C   1.0     0.468162     0.974862     0.731439  Biso 1.000000     C
    C   1.0     0.552711     0.937278     0.544945  Biso 1.000000     C
    C   1.0     0.243230     0.181710     0.976558  Biso 1.000000     C
    C   1.0     0.201647     0.270058     0.975947  Biso 1.000000     C
    C   1.0     0.097880     0.456557     0.937626  Biso 1.000000     C
    C   1.0     0.397203     0.819636     0.024926  Biso 1.000000     C
    C   1.0     0.443134     0.731399     0.025603  Biso 1.000000     C
    C   1.0     0.491163     0.544939     0.062798  Biso 1.000000     C
    C   1.0     0.906573     0.683998    -0.000501  Biso 1.000000     C
    C   1.0     0.953939     0.590157    -0.000337  Biso 1.000000     C
    C   1.0     0.593896     0.316020    -0.000482  Biso 1.000000     C
    C   1.0     0.546377     0.409853    -0.000316  Biso 1.000000     C
    C   1.0     0.906183     0.000465     0.683995  Biso 1.000000     C
    C   1.0     0.953679     0.000307     0.590155  Biso 1.000000     C
    C   1.0     0.593393     0.000490     0.315991  Biso 1.000000     C
    C   1.0     0.546043     0.000331     0.409839  Biso 1.000000     C
    C   1.0     0.093435     0.316002     0.000500  Biso 1.000000     C
    C   1.0     0.046081     0.409843     0.000351  Biso 1.000000     C
    C   1.0     0.406118     0.683980     0.000487  Biso 1.000000     C
    C   1.0     0.453637     0.590148     0.000321  Biso 1.000000     C
    C   1.0     0.093830    -0.000477     0.316009  Biso 1.000000     C
    C   1.0     0.046337    -0.000321     0.409849  Biso 1.000000     C
    C   1.0     0.406626    -0.000493     0.684013  Biso 1.000000     C
    C   1.0     0.453966    -0.000345     0.590165  Biso 1.000000     C
    N   1.0     0.817220     0.862875    -0.000379  Biso 1.000000     N
    N   1.0     0.683148     0.137164    -0.000387  Biso 1.000000     N
    N   1.0     0.816909     0.000374     0.862861  Biso 1.000000     N
    N   1.0     0.682759     0.000377     0.137106  Biso 1.000000     N
    N   1.0     0.182799     0.137125     0.000369  Biso 1.000000     N
    N   1.0     0.316872     0.862836     0.000381  Biso 1.000000     N
    N   1.0     0.183097    -0.000378     0.137144  Biso 1.000000     N
    N   1.0     0.317249    -0.000379     0.862899  Biso 1.000000     N
    F   1.0     0.925694     0.076644     0.076367  Biso 1.000000     F
    F   1.0     0.074325     0.923343     0.923645  Biso 1.000000     F
    F   1.0    -0.000110     0.923598     0.076658  Biso 1.000000     F
    F   1.0     0.000000     0.076388     0.923353  Biso 1.000000     F
    F   1.0     0.425687     0.076363     0.076647  Biso 1.000000     F
    F   1.0     0.574332     0.923623     0.923364  Biso 1.000000     F
    F   1.0     0.499885     0.076647     0.923613  Biso 1.000000     F
    F   1.0     0.500134     0.923340     0.076399  Biso 1.000000     F
    F   1.0     0.886401     0.000184     0.000205  Biso 1.000000     F
    F   1.0     0.613609    -0.000201    -0.000187  Biso 1.000000     F
    F   1.0     0.113606    -0.000184    -0.000206  Biso 1.000000     F
    F   1.0     0.386398     0.000202     0.000186  Biso 1.000000     F
   Si   1.0    -0.000001     0.000000    -0.000000  Biso 1.000000    Si
   Si   1.0     0.500004     0.000000    -0.000000  Biso 1.000000    Si
   Zn   1.0     0.750005    -0.000028     0.000029  Biso 1.000000    Zn
   Zn   1.0     0.250003     0.000031    -0.000034  Biso 1.000000    Zn
