#======================================================================

# CRYSTAL DATA

#----------------------------------------------------------------------

data_VESTA_phase_1


_pd_phase_name                         MOF
_cell_length_a                         16.10100
_cell_length_b                         16.09500
_cell_length_c                         22.12400
_cell_angle_alpha                      90.00300
_cell_angle_beta                       89.97000
_cell_angle_gamma                      90.01800
_symmetry_space_group_name_H-M         "P 1"
_symmetry_Int_Tables_number            1

loop_
_symmetry_equiv_pos_as_xyz
   "x, y, z"

loop_
   _atom_site_label
   _atom_site_occupancy
   _atom_site_fract_x
   _atom_site_fract_y
   _atom_site_fract_z
   _atom_site_adp_type
   _atom_site_B_iso_or_equiv
   _atom_site_type_symbol
    H   1.0     0.725654     0.487380     0.420966  Biso 1.000000     H
    H   1.0     0.840578     0.387582     0.430372  Biso 1.000000     H
    H   1.0     0.763812     0.347345     0.615645  Biso 1.000000     H
    H   1.0     0.650617     0.447893     0.597990  Biso 1.000000     H
    H   1.0     0.961354     0.345399     0.463864  Biso 1.000000     H
    H   1.0     0.067911     0.235520     0.474786  Biso 1.000000     H
    H   1.0     0.046023     0.119348     0.546969  Biso 1.000000     H
    H   1.0     0.812240     0.225737     0.600614  Biso 1.000000     H
    H   1.0     0.803540     0.006651     0.794226  Biso 1.000000     H
    H   1.0     0.702528     0.908129     0.839725  Biso 1.000000     H
    H   1.0     0.649711     0.789490     0.781096  Biso 1.000000     H
    H   1.0     0.801812     0.865767     0.629476  Biso 1.000000     H
    H   1.0     0.578315     0.720023     0.718361  Biso 1.000000     H
    H   1.0     0.526688     0.611580     0.650063  Biso 1.000000     H
    H   1.0     0.728207     0.639549     0.534700  Biso 1.000000     H
    H   1.0     0.788300     0.749732     0.596569  Biso 1.000000     H
    H   1.0     0.737021     0.104626     0.663519  Biso 1.000000     H
    H   1.0     0.737102     0.026960     0.612984  Biso 1.000000     H
    H   1.0     0.274260     0.512131     0.921594  Biso 1.000000     H
    H   1.0     0.159292     0.611926     0.931111  Biso 1.000000     H
    H   1.0     0.236557     0.652731     0.116173  Biso 1.000000     H
    H   1.0     0.349827     0.552237     0.098363  Biso 1.000000     H
    H   1.0     0.038695     0.654216     0.964638  Biso 1.000000     H
    H   1.0     0.932270     0.764275     0.975403  Biso 1.000000     H
    H   1.0     0.954359     0.880762     0.047298  Biso 1.000000     H
    H   1.0     0.187890     0.774162     0.101122  Biso 1.000000     H
    H   1.0     0.196513     0.993311     0.294420  Biso 1.000000     H
    H   1.0     0.297861     0.091433     0.339903  Biso 1.000000     H
    H   1.0     0.350983     0.210033     0.281346  Biso 1.000000     H
    H   1.0     0.198412     0.134587     0.129847  Biso 1.000000     H
    H   1.0     0.422148     0.280000     0.218794  Biso 1.000000     H
    H   1.0     0.473777     0.388592     0.150560  Biso 1.000000     H
    H   1.0     0.272316     0.360761     0.035300  Biso 1.000000     H
    H   1.0     0.212349     0.250306     0.097021  Biso 1.000000     H
    H   1.0     0.262360     0.893997     0.164690  Biso 1.000000     H
    H   1.0     0.264074     0.972301     0.114891  Biso 1.000000     H
    H   1.0     0.012727     0.225667     0.171078  Biso 1.000000     H
    H   1.0     0.112641     0.340582     0.180454  Biso 1.000000     H
    H   1.0     0.152506     0.264119     0.365769  Biso 1.000000     H
    H   1.0     0.051886     0.150865     0.348144  Biso 1.000000     H
    H   1.0     0.154868     0.461636     0.214151  Biso 1.000000     H
    H   1.0     0.264878     0.568127     0.225180  Biso 1.000000     H
    H   1.0     0.381047     0.545953     0.297236  Biso 1.000000     H
    H   1.0     0.274299     0.312091     0.350612  Biso 1.000000     H
    H   1.0     0.493306     0.303500     0.544151  Biso 1.000000     H
    H   1.0     0.591500     0.202407     0.589813  Biso 1.000000     H
    H   1.0     0.710102     0.149245     0.531306  Biso 1.000000     H
    H   1.0     0.634627     0.301318     0.379548  Biso 1.000000     H
    H   1.0     0.779770     0.077684     0.468702  Biso 1.000000     H
    H   1.0     0.888552     0.026066     0.400630  Biso 1.000000     H
    H   1.0     0.861165     0.227707     0.285314  Biso 1.000000     H
    H   1.0     0.750614     0.287674     0.346942  Biso 1.000000     H
    H   1.0     0.394112     0.237432     0.413727  Biso 1.000000     H
    H   1.0     0.472858     0.236103     0.364208  Biso 1.000000     H
    H   1.0     0.987782     0.774217     0.671230  Biso 1.000000     H
    H   1.0     0.887961     0.659219     0.680568  Biso 1.000000     H
    H   1.0     0.847528     0.735775     0.865835  Biso 1.000000     H
    H   1.0     0.947970     0.849209     0.848206  Biso 1.000000     H
    H   1.0     0.845539     0.538330     0.714056  Biso 1.000000     H
    H   1.0     0.735404     0.431889     0.724877  Biso 1.000000     H
    H   1.0     0.619107     0.453969     0.796888  Biso 1.000000     H
    H   1.0     0.725888     0.687604     0.850686  Biso 1.000000     H
    H   1.0     0.506673     0.696321     0.044038  Biso 1.000000     H
    H   1.0     0.408376     0.797298     0.089801  Biso 1.000000     H
    H   1.0     0.289777     0.850429     0.031391  Biso 1.000000     H
    H   1.0     0.365611     0.698712     0.879427  Biso 1.000000     H
    H   1.0     0.220051     0.922045     0.968771  Biso 1.000000     H
    H   1.0     0.111419     0.973615     0.900653  Biso 1.000000     H
    H   1.0     0.139140     0.772095     0.785277  Biso 1.000000     H
    H   1.0     0.249569     0.712167     0.846931  Biso 1.000000     H
    H   1.0     0.605310     0.762736     0.913522  Biso 1.000000     H
    H   1.0     0.527365     0.763376     0.863302  Biso 1.000000     H
    H   1.0     0.773901     0.987817     0.328461  Biso 1.000000     H
    H   1.0     0.658938     0.887964     0.319081  Biso 1.000000     H
    H   1.0     0.736440     0.846733     0.134077  Biso 1.000000     H
    H   1.0     0.849673     0.947348     0.151739  Biso 1.000000     H
    H   1.0     0.538425     0.845443     0.285669  Biso 1.000000     H
    H   1.0     0.431871     0.735439     0.274939  Biso 1.000000     H
    H   1.0     0.453819     0.618987     0.203006  Biso 1.000000     H
    H   1.0     0.687609     0.725356     0.149178  Biso 1.000000     H
    H   1.0     0.695821     0.506089     0.955695  Biso 1.000000     H
    H   1.0     0.797000     0.407921     0.910046  Biso 1.000000     H
    H   1.0     0.850445     0.289564     0.968651  Biso 1.000000     H
    H   1.0     0.698676     0.365443     0.120562  Biso 1.000000     H
    H   1.0     0.922287     0.220255     0.031471  Biso 1.000000     H
    H   1.0     0.973755     0.111560     0.099600  Biso 1.000000     H
    H   1.0     0.771878     0.138781     0.214705  Biso 1.000000     H
    H   1.0     0.711962     0.249215     0.152971  Biso 1.000000     H
    H   1.0     0.763140     0.603565     0.087042  Biso 1.000000     H
    H   1.0     0.762399     0.526082     0.137711  Biso 1.000000     H
    H   1.0     0.226071     0.012023     0.828401  Biso 1.000000     H
    H   1.0     0.340963     0.111998     0.818985  Biso 1.000000     H
    H   1.0     0.263419     0.153310     0.634069  Biso 1.000000     H
    H   1.0     0.150252     0.052622     0.651766  Biso 1.000000     H
    H   1.0     0.461549     0.154499     0.785383  Biso 1.000000     H
    H   1.0     0.568101     0.264459     0.774512  Biso 1.000000     H
    H   1.0     0.546114     0.380929     0.702616  Biso 1.000000     H
    H   1.0     0.312132     0.274727     0.649217  Biso 1.000000     H
    H   1.0     0.303733     0.493540     0.455721  Biso 1.000000     H
    H   1.0     0.202173     0.591369     0.410233  Biso 1.000000     H
    H   1.0     0.148718     0.709772     0.468821  Biso 1.000000     H
    H   1.0     0.301458     0.634806     0.620320  Biso 1.000000     H
    H   1.0     0.077150     0.779029     0.531664  Biso 1.000000     H
    H   1.0     0.025731     0.888122     0.599595  Biso 1.000000     H
    H   1.0     0.227878     0.861554     0.714379  Biso 1.000000     H
    H   1.0     0.287777     0.750878     0.652801  Biso 1.000000     H
    H   1.0     0.236888     0.396028     0.586825  Biso 1.000000     H
    H   1.0     0.237172     0.473859     0.637144  Biso 1.000000     H
    H   1.0     0.487467     0.726139     0.578631  Biso 1.000000     H
    H   1.0     0.387374     0.840850     0.569390  Biso 1.000000     H
    H   1.0     0.346451     0.763670     0.384316  Biso 1.000000     H
    H   1.0     0.447306     0.650710     0.401814  Biso 1.000000     H
    H   1.0     0.344699     0.961633     0.535800  Biso 1.000000     H
    H   1.0     0.234720     0.068083     0.524810  Biso 1.000000     H
    H   1.0     0.118452     0.045816     0.452836  Biso 1.000000     H
    H   1.0     0.224924     0.811855     0.399577  Biso 1.000000     H
    H   1.0     0.006552     0.803349     0.205324  Biso 1.000000     H
    H   1.0     0.908233     0.702311     0.159692  Biso 1.000000     H
    H   1.0     0.789547     0.649254     0.218222  Biso 1.000000     H
    H   1.0     0.865585     0.801157     0.370000  Biso 1.000000     H
    H   1.0     0.720142     0.577397     0.281256  Biso 1.000000     H
    H   1.0     0.611437     0.526123     0.349525  Biso 1.000000     H
    H   1.0     0.638688     0.728553     0.464158  Biso 1.000000     H
    H   1.0     0.748851     0.788376     0.402235  Biso 1.000000     H
    H   1.0     0.104526     0.736800     0.336604  Biso 1.000000     H
    H   1.0     0.025923     0.736277     0.386208  Biso 1.000000     H
    H   1.0     0.512076     0.274047     0.078291  Biso 1.000000     H
    H   1.0     0.611885     0.159057     0.068881  Biso 1.000000     H
    H   1.0     0.652870     0.236279     0.883785  Biso 1.000000     H
    H   1.0     0.552386     0.349567     0.901490  Biso 1.000000     H
    H   1.0     0.654176     0.038247     0.035303  Biso 1.000000     H
    H   1.0     0.764150     0.931753     0.024459  Biso 1.000000     H
    H   1.0     0.880648     0.953935     0.952577  Biso 1.000000     H
    H   1.0     0.774283     0.187745     0.898966  Biso 1.000000     H
    H   1.0     0.993244     0.196736     0.705624  Biso 1.000000     H
    H   1.0     0.091518     0.297925     0.660047  Biso 1.000000     H
    H   1.0     0.210173     0.350857     0.718539  Biso 1.000000     H
    H   1.0     0.134470     0.198399     0.870152  Biso 1.000000     H
    H   1.0     0.280020     0.422105     0.781089  Biso 1.000000     H
    H   1.0     0.388602     0.473685     0.849273  Biso 1.000000     H
    H   1.0     0.360800     0.272046     0.964526  Biso 1.000000     H
    H   1.0     0.250353     0.212147     0.902843  Biso 1.000000     H
    H   1.0     0.894275     0.262474     0.835391  Biso 1.000000     H
    H   1.0     0.972199     0.263789     0.885532  Biso 1.000000     H
    C   1.0     0.736543     0.456076     0.463859  Biso 1.000000     C
    C   1.0     0.801703     0.400170     0.469606  Biso 1.000000     C
    C   1.0     0.813687     0.357526     0.524363  Biso 1.000000     C
    C   1.0     0.758696     0.377084     0.571617  Biso 1.000000     C
    C   1.0     0.695085     0.433857     0.562253  Biso 1.000000     C
    C   1.0     0.878452     0.293000     0.531035  Biso 1.000000     C
    C   1.0     0.950935     0.294573     0.495536  Biso 1.000000     C
    C   1.0     0.011135     0.232899     0.501518  Biso 1.000000     C
    C   1.0    -0.000448     0.168002     0.542267  Biso 1.000000     C
    C   1.0     0.927367     0.164848     0.578066  Biso 1.000000     C
    C   1.0     0.867676     0.227838     0.572640  Biso 1.000000     C
    C   1.0     0.919361     0.096307     0.621160  Biso 1.000000     C
    C   1.0     0.870099     0.997538     0.680894  Biso 1.000000     C
    C   1.0     0.809495     0.940788     0.709282  Biso 1.000000     C
    C   1.0     0.780678     0.954181     0.768279  Biso 1.000000     C
    C   1.0     0.722980     0.899326     0.793179  Biso 1.000000     C
    C   1.0     0.692815     0.832543     0.759636  Biso 1.000000     C
    C   1.0     0.719832     0.818890     0.699983  Biso 1.000000     C
    C   1.0     0.778749     0.874022     0.675387  Biso 1.000000     C
    C   1.0     0.688142     0.748362     0.663641  Biso 1.000000     C
    C   1.0     0.614654     0.705295     0.678250  Biso 1.000000     C
    C   1.0     0.584575     0.643858     0.639732  Biso 1.000000     C
    C   1.0     0.696152     0.659748     0.575578  Biso 1.000000     C
    C   1.0     0.730157     0.721761     0.611318  Biso 1.000000     C
    C   1.0     0.263476     0.543603     0.964448  Biso 1.000000     C
    C   1.0     0.198298     0.599470     0.970269  Biso 1.000000     C
    C   1.0     0.186434     0.642254     0.025004  Biso 1.000000     C
    C   1.0     0.241573     0.622871     0.072169  Biso 1.000000     C
    C   1.0     0.305216     0.566137     0.062728  Biso 1.000000     C
    C   1.0     0.121661     0.706778     0.031658  Biso 1.000000     C
    C   1.0     0.049170     0.705148     0.996206  Biso 1.000000     C
    C   1.0     0.989043     0.766926     0.000000  Biso 1.000000     C
    C   1.0     0.000000     0.831977     0.042705  Biso 1.000000     C
    C   1.0     0.072879     0.835142     0.078489  Biso 1.000000     C
    C   1.0     0.132485     0.772055     0.073156  Biso 1.000000     C
    C   1.0     0.080904     0.903822     0.121454  Biso 1.000000     C
    C   1.0     0.130061     0.002702     0.181115  Biso 1.000000     C
    C   1.0     0.190714     0.059331     0.209545  Biso 1.000000     C
    C   1.0     0.219522     0.045753     0.268503  Biso 1.000000     C
    C   1.0     0.277396     0.100394     0.293393  Biso 1.000000     C
    C   1.0     0.307734     0.167151     0.259889  Biso 1.000000     C
    C   1.0     0.280681     0.181022     0.200294  Biso 1.000000     C
    C   1.0     0.221587     0.126098     0.175694  Biso 1.000000     C
    C   1.0     0.312444     0.251612     0.164036  Biso 1.000000     C
    C   1.0     0.385878     0.294727     0.178677  Biso 1.000000     C
    C   1.0     0.415932     0.356269     0.140211  Biso 1.000000     C
    C   1.0     0.304409     0.340446     0.076107  Biso 1.000000     C
    C   1.0     0.270452     0.278303     0.111766  Biso 1.000000     C
    C   1.0     0.043996     0.236600     0.213971  Biso 1.000000     C
    C   1.0     0.099971     0.301754     0.219699  Biso 1.000000     C
    C   1.0     0.142566     0.313786     0.274457  Biso 1.000000     C
    C   1.0     0.122869     0.258872     0.321729  Biso 1.000000     C
    C   1.0     0.066047     0.195262     0.312384  Biso 1.000000     C
    C   1.0     0.207176     0.378513     0.281151  Biso 1.000000     C
    C   1.0     0.205685     0.451100     0.245767  Biso 1.000000     C
    C   1.0     0.267435     0.511267     0.251819  Biso 1.000000     C
    C   1.0     0.332324     0.499533     0.292496  Biso 1.000000     C
    C   1.0     0.335384     0.427230     0.328189  Biso 1.000000     C
    C   1.0     0.272322     0.367590     0.322702  Biso 1.000000     C
    C   1.0     0.403921     0.419130     0.371227  Biso 1.000000     C
    C   1.0     0.502736     0.369839     0.430833  Biso 1.000000     C
    C   1.0     0.559327     0.309154     0.459242  Biso 1.000000     C
    C   1.0     0.545756     0.280456     0.518253  Biso 1.000000     C
    C   1.0     0.600408     0.222710     0.543247  Biso 1.000000     C
    C   1.0     0.667174     0.192357     0.509781  Biso 1.000000     C
    C   1.0     0.681028     0.219252     0.450128  Biso 1.000000     C
    C   1.0     0.626095     0.278234     0.425429  Biso 1.000000     C
    C   1.0     0.751665     0.187485     0.413935  Biso 1.000000     C
    C   1.0     0.794672     0.114007     0.428614  Biso 1.000000     C
    C   1.0     0.856297     0.083946     0.390225  Biso 1.000000     C
    C   1.0     0.840718     0.195583     0.326101  Biso 1.000000     C
    C   1.0     0.778526     0.229532     0.361698  Biso 1.000000     C
    C   1.0     0.956365     0.763322     0.714090  Biso 1.000000     C
    C   1.0     0.900473     0.698101     0.719805  Biso 1.000000     C
    C   1.0     0.857742     0.686064     0.774537  Biso 1.000000     C
    C   1.0     0.877262     0.741031     0.821807  Biso 1.000000     C
    C   1.0     0.933986     0.804741     0.812464  Biso 1.000000     C
    C   1.0     0.793145     0.621315     0.781160  Biso 1.000000     C
    C   1.0     0.794666     0.548814     0.745674  Biso 1.000000     C
    C   1.0     0.732860     0.488679     0.751601  Biso 1.000000     C
    C   1.0     0.667877     0.500369     0.792259  Biso 1.000000     C
    C   1.0     0.664791     0.572579     0.828052  Biso 1.000000     C
    C   1.0     0.727914     0.632182     0.822693  Biso 1.000000     C
    C   1.0     0.596161     0.580684     0.871058  Biso 1.000000     C
    C   1.0     0.497337     0.630065     0.930688  Biso 1.000000     C
    C   1.0     0.440721     0.690736     0.959135  Biso 1.000000     C
    C   1.0     0.454225     0.719353     0.018175  Biso 1.000000     C
    C   1.0     0.399513     0.777033     0.043227  Biso 1.000000     C
    C   1.0     0.332739     0.807365     0.009814  Biso 1.000000     C
    C   1.0     0.318943     0.780529     0.950136  Biso 1.000000     C
    C   1.0     0.373961     0.721647     0.925364  Biso 1.000000     C
    C   1.0     0.248320     0.812273     0.913976  Biso 1.000000     C
    C   1.0     0.205256     0.885727     0.928668  Biso 1.000000     C
    C   1.0     0.143706     0.915758     0.890260  Biso 1.000000     C
    C   1.0     0.159447     0.804195     0.826098  Biso 1.000000     C
    C   1.0     0.221557     0.770244     0.861724  Biso 1.000000     C
    C   1.0     0.763179     0.956235     0.285645  Biso 1.000000     C
    C   1.0     0.697989     0.900326     0.279900  Biso 1.000000     C
    C   1.0     0.686183     0.857397     0.225230  Biso 1.000000     C
    C   1.0     0.741396     0.876699     0.178042  Biso 1.000000     C
    C   1.0     0.805033     0.933492     0.187407  Biso 1.000000     C
    C   1.0     0.621383     0.792843     0.218631  Biso 1.000000     C
    C   1.0     0.548860     0.794512     0.254092  Biso 1.000000     C
    C   1.0     0.488652     0.732773     0.248212  Biso 1.000000     C
    C   1.0     0.500269     0.667710     0.207606  Biso 1.000000     C
    C   1.0     0.572485     0.664484     0.171837  Biso 1.000000     C
    C   1.0     0.632179     0.727525     0.177160  Biso 1.000000     C
    C   1.0     0.580526     0.595871     0.128808  Biso 1.000000     C
    C   1.0     0.629865     0.497050     0.069152  Biso 1.000000     C
    C   1.0     0.690494     0.440381     0.040730  Biso 1.000000     C
    C   1.0     0.718984     0.453751     0.981632  Biso 1.000000     C
    C   1.0     0.776783     0.399115     0.956644  Biso 1.000000     C
    C   1.0     0.807286     0.332490     0.990161  Biso 1.000000     C
    C   1.0     0.780478     0.318763     0.049864  Biso 1.000000     C
    C   1.0     0.721548     0.373753     0.074595  Biso 1.000000     C
    C   1.0     0.812256     0.248186     0.086075  Biso 1.000000     C
    C   1.0     0.885819     0.205291     0.071479  Biso 1.000000     C
    C   1.0     0.915815     0.143721     0.109906  Biso 1.000000     C
    C   1.0     0.804040     0.159192     0.173923  Biso 1.000000     C
    C   1.0     0.770108     0.221292     0.138261  Biso 1.000000     C
    C   1.0     0.236773     0.043654     0.785596  Biso 1.000000     C
    C   1.0     0.301909     0.099632     0.779832  Biso 1.000000     C
    C   1.0     0.313687     0.142614     0.725174  Biso 1.000000     C
    C   1.0     0.258483     0.123313     0.678023  Biso 1.000000     C
    C   1.0     0.194892     0.066463     0.687402  Biso 1.000000     C
    C   1.0     0.378467     0.207185     0.718524  Biso 1.000000     C
    C   1.0     0.451053     0.205465     0.753858  Biso 1.000000     C
    C   1.0     0.511273     0.267181     0.747886  Biso 1.000000     C
    C   1.0     0.499628     0.332254     0.707310  Biso 1.000000     C
    C   1.0     0.427347     0.335532     0.671666  Biso 1.000000     C
    C   1.0     0.367624     0.272526     0.677089  Biso 1.000000     C
    C   1.0     0.419316     0.404152     0.628652  Biso 1.000000     C
    C   1.0     0.370046     0.502973     0.569013  Biso 1.000000     C
    C   1.0     0.309341     0.559537     0.540620  Biso 1.000000     C
    C   1.0     0.280599     0.545923     0.481646  Biso 1.000000     C
    C   1.0     0.222580     0.600365     0.456753  Biso 1.000000     C
    C   1.0     0.192069     0.667013     0.490270  Biso 1.000000     C
    C   1.0     0.219124     0.680972     0.549857  Biso 1.000000     C
    C   1.0     0.278314     0.626210     0.574472  Biso 1.000000     C
    C   1.0     0.187349     0.751576     0.586061  Biso 1.000000     C
    C   1.0     0.113701     0.794343     0.571535  Biso 1.000000     C
    C   1.0     0.083747     0.856083     0.609856  Biso 1.000000     C
    C   1.0     0.195657     0.840937     0.673699  Biso 1.000000     C
    C   1.0     0.229557     0.778675     0.638138  Biso 1.000000     C
    C   1.0     0.455925     0.736882     0.535819  Biso 1.000000     C
    C   1.0     0.399842     0.801925     0.530163  Biso 1.000000     C
    C   1.0     0.356914     0.813734     0.475519  Biso 1.000000     C
    C   1.0     0.376383     0.758698     0.428272  Biso 1.000000     C
    C   1.0     0.433336     0.695212     0.437544  Biso 1.000000     C
    C   1.0     0.292235     0.878388     0.468912  Biso 1.000000     C
    C   1.0     0.293818     0.951036     0.504242  Biso 1.000000     C
    C   1.0     0.232092     0.011172     0.498212  Biso 1.000000     C
    C   1.0     0.167128    -0.000623     0.457592  Biso 1.000000     C
    C   1.0     0.163949     0.927025     0.421968  Biso 1.000000     C
    C   1.0     0.226983     0.867390     0.427452  Biso 1.000000     C
    C   1.0     0.095536     0.918926     0.378809  Biso 1.000000     C
    C   1.0     0.997186     0.869692     0.318739  Biso 1.000000     C
    C   1.0     0.940569     0.809082     0.290231  Biso 1.000000     C
    C   1.0     0.954068     0.780386     0.231219  Biso 1.000000     C
    C   1.0     0.899341     0.722645     0.206252  Biso 1.000000     C
    C   1.0     0.832539     0.692350     0.239729  Biso 1.000000     C
    C   1.0     0.818738     0.719301     0.299373  Biso 1.000000     C
    C   1.0     0.873782     0.778200     0.324057  Biso 1.000000     C
    C   1.0     0.748076     0.687670     0.335610  Biso 1.000000     C
    C   1.0     0.705179     0.614012     0.321187  Biso 1.000000     C
    C   1.0     0.643603     0.584129     0.359694  Biso 1.000000     C
    C   1.0     0.659054     0.696201     0.423450  Biso 1.000000     C
    C   1.0     0.721131     0.730040     0.387672  Biso 1.000000     C
    C   1.0     0.543591     0.263245     0.035453  Biso 1.000000     C
    C   1.0     0.599462     0.198047     0.029692  Biso 1.000000     C
    C   1.0     0.642290     0.186153     0.974975  Biso 1.000000     C
    C   1.0     0.622958     0.241289     0.927774  Biso 1.000000     C
    C   1.0     0.566228     0.304955     0.937159  Biso 1.000000     C
    C   1.0     0.706800     0.121350     0.968340  Biso 1.000000     C
    C   1.0     0.705109     0.048757     0.003737  Biso 1.000000     C
    C   1.0     0.766835     0.988596    -0.002211  Biso 1.000000     C
    C   1.0     0.831904     0.000000     0.957201  Biso 1.000000     C
    C   1.0     0.835149     0.072602     0.921492  Biso 1.000000     C
    C   1.0     0.772107     0.132244     0.926870  Biso 1.000000     C
    C   1.0     0.903829     0.080723     0.878526  Biso 1.000000     C
    C   1.0     0.002668     0.130035     0.818860  Biso 1.000000     C
    C   1.0     0.059306     0.190741     0.790445  Biso 1.000000     C
    C   1.0     0.045739     0.219634     0.731501  Biso 1.000000     C
    C   1.0     0.100435     0.277452     0.706563  Biso 1.000000     C
    C   1.0     0.167232     0.307666     0.740027  Biso 1.000000     C
    C   1.0     0.181074     0.280570     0.799623  Biso 1.000000     C
    C   1.0     0.126100     0.221519     0.824268  Biso 1.000000     C
    C   1.0     0.251680     0.312290     0.835829  Biso 1.000000     C
    C   1.0     0.294770     0.385773     0.821185  Biso 1.000000     C
    C   1.0     0.356300     0.415803     0.859622  Biso 1.000000     C
    C   1.0     0.340514     0.304174     0.923720  Biso 1.000000     C
    C   1.0     0.278401     0.270233     0.888070  Biso 1.000000     C
    N   1.0     0.983671     0.057820     0.646235  Biso 1.000000     N
    N   1.0     0.952595     0.995995     0.683292  Biso 1.000000     N
    N   1.0     0.847184     0.060629     0.642541  Biso 1.000000     N
    N   1.0     0.765717     0.081414     0.625238  Biso 1.000000     N
    N   1.0     0.623135     0.622080     0.587790  Biso 1.000000     N
    N   1.0     0.682833     0.473100     0.509022  Biso 1.000000     N
    N   1.0     0.016555     0.942679     0.146219  Biso 1.000000     N
    N   1.0     0.047558     0.004586     0.183186  Biso 1.000000     N
    N   1.0     0.153049     0.939325     0.143011  Biso 1.000000     N
    N   1.0     0.234635     0.917927     0.126289  Biso 1.000000     N
    N   1.0     0.377389     0.378144     0.088313  Biso 1.000000     N
    N   1.0     0.317347     0.526771     0.009517  Biso 1.000000     N
    N   1.0     0.442514     0.483449     0.396271  Biso 1.000000     N
    N   1.0     0.504395     0.452374     0.433203  Biso 1.000000     N
    N   1.0     0.439545     0.346925     0.392557  Biso 1.000000     N
    N   1.0     0.418390     0.265390     0.375497  Biso 1.000000     N
    N   1.0     0.878321     0.122560     0.338344  Biso 1.000000     N
    N   1.0     0.026858     0.182947     0.259152  Biso 1.000000     N
    N   1.0     0.557465     0.516392     0.896073  Biso 1.000000     N
    N   1.0     0.495584     0.547535     0.933042  Biso 1.000000     N
    N   1.0     0.560599     0.652922     0.892416  Biso 1.000000     N
    N   1.0     0.581725     0.734406     0.875233  Biso 1.000000     N
    N   1.0     0.121791     0.877194     0.838357  Biso 1.000000     N
    N   1.0     0.973273     0.817080     0.759241  Biso 1.000000     N
    N   1.0     0.516255     0.557554     0.103521  Biso 1.000000     N
    N   1.0     0.547381     0.495687     0.066516  Biso 1.000000     N
    N   1.0     0.652716     0.560048     0.107641  Biso 1.000000     N
    N   1.0     0.734112     0.580602     0.125259  Biso 1.000000     N
    N   1.0     0.877115     0.121671     0.161737  Biso 1.000000     N
    N   1.0     0.817107     0.972991     0.240565  Biso 1.000000     N
    N   1.0     0.483609     0.442515     0.603381  Biso 1.000000     N
    N   1.0     0.452536     0.504391     0.566401  Biso 1.000000     N
    N   1.0     0.347141     0.439950     0.607486  Biso 1.000000     N
    N   1.0     0.265690     0.419305     0.625029  Biso 1.000000     N
    N   1.0     0.122568     0.878414     0.661549  Biso 1.000000     N
    N   1.0     0.182860     0.026892     0.740544  Biso 1.000000     N
    N   1.0     0.057406     0.983261     0.353454  Biso 1.000000     N
    N   1.0     0.995865     0.952213     0.316199  Biso 1.000000     N
    N   1.0     0.059849     0.846735     0.357445  Biso 1.000000     N
    N   1.0     0.080553     0.765191     0.374767  Biso 1.000000     N
    N   1.0     0.621562     0.623014     0.411455  Biso 1.000000     N
    N   1.0     0.472855     0.683122     0.490670  Biso 1.000000     N
    N   1.0     0.942703     0.016400     0.853727  Biso 1.000000     N
    N   1.0     0.004579     0.047498     0.816738  Biso 1.000000     N
    N   1.0     0.939275     0.152946     0.856978  Biso 1.000000     N
    N   1.0     0.917902     0.234510     0.873797  Biso 1.000000     N
    N   1.0     0.378186     0.377200     0.911506  Biso 1.000000     N
    N   1.0     0.526803     0.317111     0.990347  Biso 1.000000     N
    O   1.0     0.757137     0.649693     0.000000  Biso 1.000000     O
    O   1.0     0.780502     0.777202     0.054660  Biso 1.000000     O
    O   1.0     0.652332     0.757144    -0.000107  Biso 1.000000     O
    O   1.0     0.780512     0.777596     0.945651  Biso 1.000000     O
    O   1.0     0.117802     0.201530     0.036424  Biso 1.000000     O
    O   1.0     0.118219     0.051915     0.041705  Biso 1.000000     O
    O   1.0     0.201137     0.121089     0.966425  Biso 1.000000     O
    O   1.0     0.051818     0.121653     0.958046  Biso 1.000000     O
    O   1.0     0.240922     0.349935     0.500250  Biso 1.000000     O
    O   1.0     0.218917     0.222199     0.554647  Biso 1.000000     O
    O   1.0     0.346943     0.243428     0.499903  Biso 1.000000     O
    O   1.0     0.219110     0.221997     0.445587  Biso 1.000000     O
    O   1.0     0.882235     0.798592     0.533829  Biso 1.000000     O
    O   1.0     0.878638     0.947983     0.541563  Biso 1.000000     O
    O   1.0     0.790430     0.878855     0.469636  Biso 1.000000     O
    O   1.0     0.938479     0.882306     0.453504  Biso 1.000000     O
    O   1.0     0.848031     0.256631     0.748022  Biso 1.000000     O
    O   1.0     0.722431     0.281016     0.804544  Biso 1.000000     O
    O   1.0     0.739722     0.152488     0.749734  Biso 1.000000     O
    O   1.0     0.718861     0.280660     0.695527  Biso 1.000000     O
    O   1.0     0.298818     0.621068     0.783526  Biso 1.000000     O
    O   1.0     0.448133     0.621704     0.791906  Biso 1.000000     O
    O   1.0     0.382165     0.701573     0.713556  Biso 1.000000     O
    O   1.0     0.381749     0.551956     0.708260  Biso 1.000000     O
    O   1.0     0.151502     0.740247     0.250026  Biso 1.000000     O
    O   1.0     0.278743     0.718662     0.304857  Biso 1.000000     O
    O   1.0     0.256284     0.848021     0.252131  Biso 1.000000     O
    O   1.0     0.280494     0.722302     0.195801  Biso 1.000000     O
    O   1.0     0.701503     0.382195     0.286405  Biso 1.000000     O
    O   1.0     0.551940     0.381768     0.291719  Biso 1.000000     O
    O   1.0     0.621061     0.298802     0.216476  Biso 1.000000     O
    O   1.0     0.621695     0.448167     0.208042  Biso 1.000000     O
   Cl   1.0     0.742793     0.740558     0.000106  Biso 1.000000    Cl
   Cl   1.0     0.122199     0.123956     0.000646  Biso 1.000000    Cl
   Cl   1.0     0.256323     0.259232     0.500109  Biso 1.000000    Cl
   Cl   1.0     0.872477     0.877003     0.499631  Biso 1.000000    Cl
   Cl   1.0     0.757104     0.242854     0.749447  Biso 1.000000    Cl
   Cl   1.0     0.377763     0.624001     0.749320  Biso 1.000000    Cl
   Cl   1.0     0.241916     0.757148     0.250693  Biso 1.000000    Cl
   Cl   1.0     0.623966     0.377764     0.250660  Biso 1.000000    Cl
   Cd   1.0     0.056630     0.943389     0.749965  Biso 1.000000    Cd
   Cd   1.0     0.943309     0.056636     0.249919  Biso 1.000000    Cd
   Cd   1.0     0.556738     0.556862     0.499737  Biso 1.000000    Cd
   Cd   1.0     0.443404     0.443336    -0.000154  Biso 1.000000    Cd
