#======================================================================

# CRYSTAL DATA

#----------------------------------------------------------------------

data_VESTA_phase_1


_pd_phase_name                         MOF
_cell_length_a                         13.36900
_cell_length_b                         13.36900
_cell_length_c                         13.88100
_cell_angle_alpha                      90.00600
_cell_angle_beta                       90.02600
_cell_angle_gamma                      119.99200
_symmetry_space_group_name_H-M         "P 1"
_symmetry_Int_Tables_number            1

loop_
_symmetry_equiv_pos_as_xyz
   "x, y, z"

loop_
   _atom_site_label
   _atom_site_occupancy
   _atom_site_fract_x
   _atom_site_fract_y
   _atom_site_fract_z
   _atom_site_adp_type
   _atom_site_B_iso_or_equiv
   _atom_site_type_symbol
    H   1.0     0.747764     0.705358     0.383418  Biso 1.000000     H
    H   1.0     0.960126     0.253605     0.385305  Biso 1.000000     H
    H   1.0     0.295690     0.042169     0.383322  Biso 1.000000     H
    H   1.0     0.250828     0.293136     0.884940  Biso 1.000000     H
    H   1.0     0.039987     0.747807     0.886485  Biso 1.000000     H
    H   1.0     0.703389     0.956767     0.881918  Biso 1.000000     H
    H   1.0     0.044195     0.297494     0.619923  Biso 1.000000     H
    H   1.0     0.705851     0.747607     0.617026  Biso 1.000000     H
    H   1.0     0.254509     0.958656     0.618117  Biso 1.000000     H
    H   1.0     0.956026     0.703956     0.118889  Biso 1.000000     H
    H   1.0     0.295336     0.252384     0.118444  Biso 1.000000     H
    H   1.0     0.747072     0.041536     0.116870  Biso 1.000000     H
    H   1.0     0.253586     0.295486     0.617113  Biso 1.000000     H
    H   1.0     0.043374     0.749012     0.616913  Biso 1.000000     H
    H   1.0     0.707331     0.958775     0.615056  Biso 1.000000     H
    H   1.0     0.746284     0.705295     0.116059  Biso 1.000000     H
    H   1.0     0.957785     0.251609     0.115926  Biso 1.000000     H
    H   1.0     0.294689     0.041638     0.116724  Biso 1.000000     H
    H   1.0     0.957843     0.704667     0.382169  Biso 1.000000     H
    H   1.0     0.296069     0.252781     0.381865  Biso 1.000000     H
    H   1.0     0.749397     0.043581     0.382715  Biso 1.000000     H
    H   1.0     0.041201     0.294742     0.883374  Biso 1.000000     H
    H   1.0     0.702203     0.745765     0.880254  Biso 1.000000     H
    H   1.0     0.251057     0.957496     0.883900  Biso 1.000000     H
    H   1.0     0.562158     0.455471     0.249820  Biso 1.000000     H
    H   1.0     0.893366     0.438245     0.251078  Biso 1.000000     H
    H   1.0     0.545086     0.106753     0.249674  Biso 1.000000     H
    H   1.0     0.436682     0.543251     0.749843  Biso 1.000000     H
    H   1.0     0.106698     0.563769     0.751792  Biso 1.000000     H
    H   1.0     0.456279     0.893390     0.749263  Biso 1.000000     H
    C   1.0     0.772915     0.648618     0.418000  Biso 1.000000     C
    C   1.0     0.877886     0.228454     0.419181  Biso 1.000000     C
    C   1.0     0.352452     0.124144     0.417782  Biso 1.000000     C
    C   1.0     0.226101     0.350404     0.919136  Biso 1.000000     C
    C   1.0     0.122339     0.772642     0.920084  Biso 1.000000     C
    C   1.0     0.646795     0.875011     0.916695  Biso 1.000000     C
    C   1.0     0.125443     0.353434     0.584179  Biso 1.000000     C
    C   1.0     0.649307     0.772706     0.581993  Biso 1.000000     C
    C   1.0     0.229185     0.876966     0.583089  Biso 1.000000     C
    C   1.0     0.874665     0.647600     0.083387  Biso 1.000000     C
    C   1.0     0.351730     0.227336     0.083113  Biso 1.000000     C
    C   1.0     0.772005     0.123292     0.082162  Biso 1.000000     C
    C   1.0     0.228535     0.352444     0.582794  Biso 1.000000     C
    C   1.0     0.125218     0.773751     0.582470  Biso 1.000000     C
    C   1.0     0.650053     0.876671     0.581004  Biso 1.000000     C
    C   1.0     0.771409     0.648268     0.081986  Biso 1.000000     C
    C   1.0     0.875761     0.226721     0.081681  Biso 1.000000     C
    C   1.0     0.351395     0.123574     0.082250  Biso 1.000000     C
    C   1.0     0.876338     0.648271     0.417375  Biso 1.000000     C
    C   1.0     0.352652     0.227843     0.417052  Biso 1.000000     C
    C   1.0     0.774120     0.125051     0.417895  Biso 1.000000     C
    C   1.0     0.122911     0.351213     0.918340  Biso 1.000000     C
    C   1.0     0.646195     0.771115     0.915859  Biso 1.000000     C
    C   1.0     0.226263     0.875882     0.918809  Biso 1.000000     C
    C   1.0     0.510267     0.497975     0.249887  Biso 1.000000     C
    C   1.0     0.987748     0.490064     0.250941  Biso 1.000000     C
    C   1.0     0.502442     0.012363     0.249768  Biso 1.000000     C
    C   1.0     0.489103     0.501290     0.749876  Biso 1.000000     C
    C   1.0     0.012339     0.511195     0.751197  Biso 1.000000     C
    C   1.0     0.498443     0.987771     0.749605  Biso 1.000000     C
    N   1.0     0.697765     0.558712     0.473057  Biso 1.000000     N
    N   1.0     0.862598     0.303564     0.473885  Biso 1.000000     N
    N   1.0     0.442567     0.139106     0.472738  Biso 1.000000     N
    N   1.0     0.301670     0.440627     0.973781  Biso 1.000000     N
    N   1.0     0.137602     0.697235     0.974391  Biso 1.000000     N
    N   1.0     0.557328     0.860577     0.972204  Biso 1.000000     N
    N   1.0     0.139949     0.443537     0.529514  Biso 1.000000     N
    N   1.0     0.558630     0.696953     0.527868  Biso 1.000000     N
    N   1.0     0.304592     0.861937     0.528630  Biso 1.000000     N
    N   1.0     0.860189     0.557235     0.029079  Biso 1.000000     N
    N   1.0     0.441770     0.302966     0.028445  Biso 1.000000     N
    N   1.0     0.696220     0.138177     0.028044  Biso 1.000000     N
    N   1.0     0.303498     0.442009     0.527338  Biso 1.000000     N
    N   1.0     0.139686     0.698198     0.527657  Biso 1.000000     N
    N   1.0     0.559793     0.861848     0.526312  Biso 1.000000     N
    N   1.0     0.696380     0.558247     0.026884  Biso 1.000000     N
    N   1.0     0.860803     0.302252     0.027282  Biso 1.000000     N
    N   1.0     0.441248     0.138387     0.027081  Biso 1.000000     N
    N   1.0     0.861825     0.558191     0.472080  Biso 1.000000     N
    N   1.0     0.442876     0.303588     0.471587  Biso 1.000000     N
    N   1.0     0.698013     0.139524     0.471865  Biso 1.000000     N
    N   1.0     0.137971     0.441863     0.972547  Biso 1.000000     N
    N   1.0     0.556389     0.695783     0.970883  Biso 1.000000     N
    N   1.0     0.302436     0.861018     0.972385  Biso 1.000000     N
    N   1.0     0.752960     0.504573     0.505250  Biso 1.000000     N
    N   1.0     0.581349     0.164537     0.702417  Biso 1.000000     N
    N   1.0     0.752947     0.248350     0.505220  Biso 1.000000     N
    N   1.0     0.583708     0.419217     0.702460  Biso 1.000000     N
    N   1.0     0.496705     0.248507     0.504762  Biso 1.000000     N
    N   1.0     0.836022     0.416760     0.702861  Biso 1.000000     N
    N   1.0     0.246933     0.495382     0.000000  Biso 1.000000     N
    N   1.0     0.419050     0.835625     0.202379  Biso 1.000000     N
    N   1.0     0.247382     0.752116     0.000000  Biso 1.000000     N
    N   1.0     0.416574     0.581006     0.202434  Biso 1.000000     N
    N   1.0     0.503191     0.751296     0.000000  Biso 1.000000     N
    N   1.0     0.164175     0.583480     0.202938  Biso 1.000000     N
    N   1.0     0.248498     0.496552     0.495626  Biso 1.000000     N
    N   1.0     0.419256     0.835837     0.297603  Biso 1.000000     N
    N   1.0     0.505058     0.752280     0.494703  Biso 1.000000     N
    N   1.0     0.164530     0.583741     0.298162  Biso 1.000000     N
    N   1.0     0.249059     0.752974     0.495609  Biso 1.000000     N
    N   1.0     0.416686     0.580978     0.297658  Biso 1.000000     N
    N   1.0     0.751502     0.503748    -0.004592  Biso 1.000000     N
    N   1.0     0.580764     0.164229     0.797640  Biso 1.000000     N
    N   1.0     0.495359     0.247758    -0.004941  Biso 1.000000     N
    N   1.0     0.835533     0.416412     0.798085  Biso 1.000000     N
    N   1.0     0.751346     0.247265    -0.004635  Biso 1.000000     N
    N   1.0     0.583260     0.418876     0.797684  Biso 1.000000     N
    N   1.0     0.475152     0.529167     0.329329  Biso 1.000000     N
    N   1.0     0.054441     0.525464     0.330182  Biso 1.000000     N
    N   1.0     0.471274     0.946126     0.329235  Biso 1.000000     N
    N   1.0     0.524219     0.470078     0.829331  Biso 1.000000     N
    N   1.0     0.945544     0.475305     0.830294  Biso 1.000000     N
    N   1.0     0.529026     0.053922     0.829152  Biso 1.000000     N
    N   1.0     0.946378     0.475892     0.671532  Biso 1.000000     N
    N   1.0     0.524979     0.470660     0.670569  Biso 1.000000     N
    N   1.0     0.530009     0.054441     0.670389  Biso 1.000000     N
    N   1.0     0.053840     0.525012     0.171415  Biso 1.000000     N
    N   1.0     0.474961     0.529217     0.170563  Biso 1.000000     N
    N   1.0     0.470937     0.945767     0.170469  Biso 1.000000     N
    N   1.0     0.333290     0.666720     0.751301  Biso 1.000000     N
    N   1.0     0.666787     0.333318     0.250018  Biso 1.000000     N
    O   1.0     0.286397     0.557014     0.753858  Biso 1.000000     O
    O   1.0     0.270583     0.713754     0.753853  Biso 1.000000     O
    O   1.0     0.442862     0.729408     0.746134  Biso 1.000000     O
    O   1.0     0.714422     0.443144     0.250066  Biso 1.000000     O
    O   1.0     0.728987     0.285688     0.250078  Biso 1.000000     O
    O   1.0     0.556974     0.271130     0.249944  Biso 1.000000     O
   Cd   1.0     0.500546     0.500186     0.499887  Biso 1.000000    Cd
   Cd   1.0     0.000860     0.500936     0.500981  Biso 1.000000    Cd
   Cd   1.0     0.501281     0.000569     0.499716  Biso 1.000000    Cd
   Cd   1.0     0.499067     0.499380    -0.000136  Biso 1.000000    Cd
   Cd   1.0    -0.000739     0.499764     0.000954  Biso 1.000000    Cd
   Cd   1.0     0.499433    -0.000434    -0.000294  Biso 1.000000    Cd
   Cd   1.0     0.667322     0.333660     0.595520  Biso 1.000000    Cd
   Cd   1.0     0.332857     0.666479     0.095488  Biso 1.000000    Cd
   Cd   1.0     0.333834     0.667091     0.404835  Biso 1.000000    Cd
   Cd   1.0     0.666293     0.333012     0.904895  Biso 1.000000    Cd
