#======================================================================

# CRYSTAL DATA

#----------------------------------------------------------------------

data_VESTA_phase_1


_pd_phase_name                         MOF
_cell_length_a                         22.52500
_cell_length_b                         14.85900
_cell_length_c                         16.14300
_cell_angle_alpha                      89.98100
_cell_angle_beta                       90.92200
_cell_angle_gamma                      90.12700
_symmetry_space_group_name_H-M         "P 1"
_symmetry_Int_Tables_number            1

loop_
_symmetry_equiv_pos_as_xyz
   "x, y, z"

loop_
   _atom_site_label
   _atom_site_occupancy
   _atom_site_fract_x
   _atom_site_fract_y
   _atom_site_fract_z
   _atom_site_adp_type
   _atom_site_B_iso_or_equiv
   _atom_site_type_symbol
    H   1.0     0.339039     0.883904     0.941899  Biso 1.000000     H
    H   1.0     0.837585     0.886356     0.942821  Biso 1.000000     H
    H   1.0     0.288480    -0.006561     0.849734  Biso 1.000000     H
    H   1.0     0.787594    -0.004635     0.849409  Biso 1.000000     H
    H   1.0     0.357094     0.926402     0.578364  Biso 1.000000     H
    H   1.0     0.856917     0.925353     0.578963  Biso 1.000000     H
    H   1.0     0.415907     0.803311     0.516474  Biso 1.000000     H
    H   1.0     0.915418     0.801075     0.518476  Biso 1.000000     H
    H   1.0     0.461240     0.685700     0.608264  Biso 1.000000     H
    H   1.0     0.960179     0.684093     0.611577  Biso 1.000000     H
    H   1.0     0.448555     0.692082     0.759434  Biso 1.000000     H
    H   1.0     0.947297     0.692316     0.762534  Biso 1.000000     H
    H   1.0     0.184933     0.261971     0.830051  Biso 1.000000     H
    H   1.0     0.687597     0.261499     0.830516  Biso 1.000000     H
    H   1.0     0.141230     0.366152     0.931490  Biso 1.000000     H
    H   1.0     0.643390     0.364478     0.932573  Biso 1.000000     H
    H   1.0     0.058075     0.606989     0.767184  Biso 1.000000     H
    H   1.0     0.558212     0.604750     0.769621  Biso 1.000000     H
    H   1.0     0.053961     0.640815     0.618090  Biso 1.000000     H
    H   1.0     0.553584     0.639322     0.620701  Biso 1.000000     H
    H   1.0     0.093043     0.530315     0.515232  Biso 1.000000     H
    H   1.0     0.593160     0.529966     0.517201  Biso 1.000000     H
    H   1.0     0.138058     0.387692     0.565012  Biso 1.000000     H
    H   1.0     0.639356     0.387852     0.566139  Biso 1.000000     H
    H   1.0     0.283594     0.000000     0.484095  Biso 1.000000     H
    H   1.0     0.783863     0.000000     0.482952  Biso 1.000000     H
    H   1.0     0.241378     0.910769     0.370021  Biso 1.000000     H
    H   1.0     0.741668     0.910558     0.368834  Biso 1.000000     H
    H   1.0     0.068332     0.015777     0.429601  Biso 1.000000     H
    H   1.0     0.568644     0.015877     0.428178  Biso 1.000000     H
    H   1.0     0.118446     0.108706     0.541148  Biso 1.000000     H
    H   1.0     0.618709     0.108532     0.539907  Biso 1.000000     H
    H   1.0     0.157050     0.711928     0.197918  Biso 1.000000     H
    H   1.0     0.656876     0.711717     0.196945  Biso 1.000000     H
    H   1.0     0.113573     0.627649     0.075076  Biso 1.000000     H
    H   1.0     0.613256     0.626822     0.074693  Biso 1.000000     H
    H   1.0     0.472614     0.805280     0.053286  Biso 1.000000     H
    H   1.0     0.973430     0.806967     0.053423  Biso 1.000000     H
    H   1.0     0.010800     0.899534     0.172398  Biso 1.000000     H
    H   1.0     0.510377     0.898893     0.171360  Biso 1.000000     H
    H   1.0     0.210902     0.247537     0.453628  Biso 1.000000     H
    H   1.0     0.711081     0.246690     0.452025  Biso 1.000000     H
    H   1.0     0.256852     0.336679     0.339891  Biso 1.000000     H
    H   1.0     0.756987     0.336059     0.338443  Biso 1.000000     H
    H   1.0     0.427431     0.291987     0.459667  Biso 1.000000     H
    H   1.0     0.927434     0.292835     0.459058  Biso 1.000000     H
    H   1.0     0.374350     0.201936     0.567401  Biso 1.000000     H
    H   1.0     0.874409     0.202491     0.566605  Biso 1.000000     H
    H   1.0     0.340143     0.549513     0.191977  Biso 1.000000     H
    H   1.0     0.840270     0.550044     0.191294  Biso 1.000000     H
    H   1.0     0.381237     0.634533     0.069004  Biso 1.000000     H
    H   1.0     0.881448     0.635591     0.068750  Biso 1.000000     H
    H   1.0     0.028949     0.469818     0.059877  Biso 1.000000     H
    H   1.0     0.528347     0.467941     0.059922  Biso 1.000000     H
    H   1.0     0.493667     0.375381     0.179077  Biso 1.000000     H
    H   1.0     0.994144     0.376571     0.178503  Biso 1.000000     H
    H   1.0     0.162717     0.387012     0.055596  Biso 1.000000     H
    H   1.0     0.660798     0.385126     0.055569  Biso 1.000000     H
    H   1.0     0.212631     0.495907     0.149452  Biso 1.000000     H
    H   1.0     0.711176     0.494731     0.147926  Biso 1.000000     H
    H   1.0     0.142589     0.424939     0.419370  Biso 1.000000     H
    H   1.0     0.642783     0.426007     0.419197  Biso 1.000000     H
    H   1.0     0.083855     0.300243     0.479421  Biso 1.000000     H
    H   1.0     0.584070     0.302194     0.480802  Biso 1.000000     H
    H   1.0     0.039188     0.183296     0.385925  Biso 1.000000     H
    H   1.0     0.538742     0.184573     0.388696  Biso 1.000000     H
    H   1.0     0.052237     0.192123     0.235011  Biso 1.000000     H
    H   1.0     0.551329     0.191703     0.237547  Biso 1.000000     H
    H   1.0     0.312543     0.761080     0.168084  Biso 1.000000     H
    H   1.0     0.814952     0.761362     0.168443  Biso 1.000000     H
    H   1.0     0.357225     0.864076     0.065973  Biso 1.000000     H
    H   1.0     0.858701     0.865477     0.066650  Biso 1.000000     H
    H   1.0     0.441254     0.105787     0.228834  Biso 1.000000     H
    H   1.0     0.942269     0.107124     0.230205  Biso 1.000000     H
    H   1.0     0.445333     0.140754     0.377663  Biso 1.000000     H
    H   1.0     0.946182     0.141508     0.379203  Biso 1.000000     H
    H   1.0     0.405858     0.031042     0.481222  Biso 1.000000     H
    H   1.0     0.906949     0.031173     0.482374  Biso 1.000000     H
    H   1.0     0.360024     0.888309     0.432354  Biso 1.000000     H
    H   1.0     0.861805     0.888184     0.433005  Biso 1.000000     H
    H   1.0     0.216051     0.505649     0.515778  Biso 1.000000     H
    H   1.0     0.716143     0.505715     0.513964  Biso 1.000000     H
    H   1.0     0.258231     0.410057     0.629878  Biso 1.000000     H
    H   1.0     0.758291     0.410004     0.628023  Biso 1.000000     H
    H   1.0     0.431238     0.516884     0.570922  Biso 1.000000     H
    H   1.0     0.931429     0.515920     0.568527  Biso 1.000000     H
    H   1.0     0.381167     0.609450     0.459231  Biso 1.000000     H
    H   1.0     0.881363     0.608862     0.457048  Biso 1.000000     H
    H   1.0     0.342653     0.211648     0.801401  Biso 1.000000     H
    H   1.0     0.842404     0.211936     0.800432  Biso 1.000000     H
    H   1.0     0.386444     0.126042     0.923028  Biso 1.000000     H
    H   1.0     0.886230     0.127364     0.922814  Biso 1.000000     H
    H   1.0     0.026506     0.307404     0.944154  Biso 1.000000     H
    H   1.0     0.527018     0.305394     0.945349  Biso 1.000000     H
    H   1.0     0.489126     0.399725     0.827951  Biso 1.000000     H
    H   1.0     0.988840     0.400224     0.825581  Biso 1.000000     H
    H   1.0     0.288759     0.746949     0.546922  Biso 1.000000     H
    H   1.0     0.788966     0.747650     0.545099  Biso 1.000000     H
    H   1.0     0.242809     0.836407     0.660195  Biso 1.000000     H
    H   1.0     0.743062     0.836996     0.658499  Biso 1.000000     H
    H   1.0     0.072480     0.792513     0.539156  Biso 1.000000     H
    H   1.0     0.572457     0.791005     0.538897  Biso 1.000000     H
    H   1.0     0.125527     0.702064     0.431948  Biso 1.000000     H
    H   1.0     0.625498     0.700824     0.431442  Biso 1.000000     H
    H   1.0     0.159918     0.050070     0.806596  Biso 1.000000     H
    H   1.0     0.660060     0.049353     0.806341  Biso 1.000000     H
    H   1.0     0.118724     0.135963     0.928769  Biso 1.000000     H
    H   1.0     0.618723     0.134445     0.928929  Biso 1.000000     H
    H   1.0     0.471362     0.967310     0.937589  Biso 1.000000     H
    H   1.0     0.971089     0.969470     0.938163  Biso 1.000000     H
    H   1.0     0.005950     0.875775     0.820026  Biso 1.000000     H
    H   1.0     0.506286     0.874626     0.818758  Biso 1.000000     H
    C   1.0     0.412707     0.754090     0.908503  Biso 1.000000     C
    C   1.0     0.911315     0.756010     0.910491  Biso 1.000000     C
    C   1.0     0.384384     0.816037     0.845100  Biso 1.000000     C
    C   1.0     0.883162     0.817569     0.846730  Biso 1.000000     C
    C   1.0     0.346632     0.881172     0.875699  Biso 1.000000     C
    C   1.0     0.845415     0.883036     0.876692  Biso 1.000000     C
    C   1.0     0.318664     0.944160     0.823661  Biso 1.000000     C
    C   1.0     0.817774     0.945681     0.823967  Biso 1.000000     C
    C   1.0     0.328868     0.945367     0.739289  Biso 1.000000     C
    C   1.0     0.828301     0.946064     0.739669  Biso 1.000000     C
    C   1.0     0.376912     0.874561     0.617425  Biso 1.000000     C
    C   1.0     0.876479     0.873786     0.618592  Biso 1.000000     C
    C   1.0     0.410313     0.806735     0.583353  Biso 1.000000     C
    C   1.0     0.909713     0.805297     0.585301  Biso 1.000000     C
    C   1.0     0.435768     0.740346     0.635224  Biso 1.000000     C
    C   1.0     0.934846     0.739261     0.637887  Biso 1.000000     C
    C   1.0     0.428397     0.743059     0.719827  Biso 1.000000     C
    C   1.0     0.927332     0.743011     0.722424  Biso 1.000000     C
    C   1.0     0.394386     0.812091     0.757453  Biso 1.000000     C
    C   1.0     0.893447     0.812720     0.759227  Biso 1.000000     C
    C   1.0     0.367166     0.879156     0.704122  Biso 1.000000     C
    C   1.0     0.866538     0.879355     0.705199  Biso 1.000000     C
    C   1.0     0.296129     0.015224     0.689317  Biso 1.000000     C
    C   1.0     0.795894     0.015534     0.688926  Biso 1.000000     C
    C   1.0     0.180713     0.267070     0.666930  Biso 1.000000     C
    C   1.0     0.683046     0.267184     0.667731  Biso 1.000000     C
    C   1.0     0.155164     0.336226     0.723884  Biso 1.000000     C
    C   1.0     0.657203     0.335884     0.724806  Biso 1.000000     C
    C   1.0     0.161316     0.321571     0.808319  Biso 1.000000     C
    C   1.0     0.663578     0.320891     0.809162  Biso 1.000000     C
    C   1.0     0.137266     0.381547     0.865786  Biso 1.000000     C
    C   1.0     0.639274     0.380215     0.866966  Biso 1.000000     C
    C   1.0     0.107357     0.458445     0.840575  Biso 1.000000     C
    C   1.0     0.608833     0.456760     0.842156  Biso 1.000000     C
    C   1.0     0.075848     0.559259     0.723078  Biso 1.000000     C
    C   1.0     0.576279     0.557568     0.725249  Biso 1.000000     C
    C   1.0     0.073026     0.577410     0.639339  Biso 1.000000     C
    C   1.0     0.573154     0.576127     0.641598  Biso 1.000000     C
    C   1.0     0.095350     0.515449     0.581424  Biso 1.000000     C
    C   1.0     0.595790     0.514824     0.583326  Biso 1.000000     C
    C   1.0     0.120864     0.436358     0.608761  Biso 1.000000     C
    C   1.0     0.621941     0.436015     0.610194  Biso 1.000000     C
    C   1.0     0.125530     0.415560     0.694590  Biso 1.000000     C
    C   1.0     0.626957     0.414861     0.695918  Biso 1.000000     C
    C   1.0     0.101850     0.478378     0.753748  Biso 1.000000     C
    C   1.0     0.602964     0.476986     0.755438  Biso 1.000000     C
    C   1.0     0.081289     0.515752     0.907948  Biso 1.000000     C
    C   1.0     0.582714     0.513657     0.909786  Biso 1.000000     C
    C   1.0     0.236122     0.000000     0.470259  Biso 1.000000     C
    C   1.0     0.736391     0.000000     0.469077  Biso 1.000000     C
    C   1.0     0.212734     0.953009     0.407090  Biso 1.000000     C
    C   1.0     0.713007     0.952851     0.405851  Biso 1.000000     C
    C   1.0     0.151154     0.955759     0.390381  Biso 1.000000     C
    C   1.0     0.651431     0.955672     0.389052  Biso 1.000000     C
    C   1.0     0.116117     0.011754     0.440276  Biso 1.000000     C
    C   1.0     0.616417     0.011748     0.438922  Biso 1.000000     C
    C   1.0     0.143266     0.062650     0.502314  Biso 1.000000     C
    C   1.0     0.643568     0.062557     0.501030  Biso 1.000000     C
    C   1.0     0.126609     0.904736     0.324236  Biso 1.000000     C
    C   1.0     0.626801     0.904653     0.322925  Biso 1.000000     C
    C   1.0     0.108448     0.861153     0.265077  Biso 1.000000     C
    C   1.0     0.608359     0.861100     0.263895  Biso 1.000000     C
    C   1.0     0.086816     0.812110     0.195708  Biso 1.000000     C
    C   1.0     0.586532     0.811748     0.194790  Biso 1.000000     C
    C   1.0     0.116426     0.734843     0.167090  Biso 1.000000     C
    C   1.0     0.616135     0.734421     0.166298  Biso 1.000000     C
    C   1.0     0.092940     0.688276     0.099516  Biso 1.000000     C
    C   1.0     0.592537     0.687429     0.099048  Biso 1.000000     C
    C   1.0     0.014353     0.789297     0.086447  Biso 1.000000     C
    C   1.0     0.513726     0.788040     0.086064  Biso 1.000000     C
    C   1.0     0.034749     0.839638     0.153351  Biso 1.000000     C
    C   1.0     0.534302     0.838864     0.152583  Biso 1.000000     C
    C   1.0     0.258763     0.258199     0.452055  Biso 1.000000     C
    C   1.0     0.758914     0.257688     0.450677  Biso 1.000000     C
    C   1.0     0.284235     0.308139     0.389368  Biso 1.000000     C
    C   1.0     0.784364     0.307770     0.388056  Biso 1.000000     C
    C   1.0     0.346319     0.320644     0.389908  Biso 1.000000     C
    C   1.0     0.846408     0.320791     0.388862  Biso 1.000000     C
    C   1.0     0.379462     0.283001     0.456056  Biso 1.000000     C
    C   1.0     0.879506     0.283444     0.455199  Biso 1.000000     C
    C   1.0     0.350304     0.233568     0.516029  Biso 1.000000     C
    C   1.0     0.850369     0.233834     0.515077  Biso 1.000000     C
    C   1.0     0.373294     0.368288     0.324618  Biso 1.000000     C
    C   1.0     0.873406     0.368661     0.323712  Biso 1.000000     C
    C   1.0     0.393139     0.408341     0.265255  Biso 1.000000     C
    C   1.0     0.893355     0.408900     0.264515  Biso 1.000000     C
    C   1.0     0.414191     0.456354     0.195831  Biso 1.000000     C
    C   1.0     0.914499     0.457201     0.195293  Biso 1.000000     C
    C   1.0     0.381760     0.529910     0.163562  Biso 1.000000     C
    C   1.0     0.882010     0.530714     0.163068  Biso 1.000000     C
    C   1.0     0.403891     0.576542     0.096181  Biso 1.000000     C
    C   1.0     0.904195     0.577672     0.095910  Biso 1.000000     C
    C   1.0     0.486493     0.482653     0.090181  Biso 1.000000     C
    C   1.0     0.987005     0.484213     0.090024  Biso 1.000000     C
    C   1.0     0.467540     0.432423     0.157201  Biso 1.000000     C
    C   1.0     0.967973     0.433645     0.156799  Biso 1.000000     C
    C   1.0     0.088703     0.256253     0.087274  Biso 1.000000     C
    C   1.0     0.587298     0.254328     0.088652  Biso 1.000000     C
    C   1.0     0.116740     0.317833     0.151297  Biso 1.000000     C
    C   1.0     0.615530     0.316392     0.152171  Biso 1.000000     C
    C   1.0     0.154677     0.383522     0.121675  Biso 1.000000     C
    C   1.0     0.653186     0.382020     0.121748  Biso 1.000000     C
    C   1.0     0.182277     0.446125     0.174662  Biso 1.000000     C
    C   1.0     0.681070     0.445103     0.173935  Biso 1.000000     C
    C   1.0     0.171575     0.446226     0.258925  Biso 1.000000     C
    C   1.0     0.670962     0.445836     0.258336  Biso 1.000000     C
    C   1.0     0.123048     0.373394     0.379588  Biso 1.000000     C
    C   1.0     0.623001     0.374131     0.380017  Biso 1.000000     C
    C   1.0     0.089686     0.304662     0.412624  Biso 1.000000     C
    C   1.0     0.589653     0.305893     0.413924  Biso 1.000000     C
    C   1.0     0.064586     0.238684     0.359808  Biso 1.000000     C
    C   1.0     0.564194     0.239519     0.361885  Biso 1.000000     C
    C   1.0     0.072206     0.242766     0.275293  Biso 1.000000     C
    C   1.0     0.571514     0.242657     0.277275  Biso 1.000000     C
    C   1.0     0.106254     0.312710     0.238752  Biso 1.000000     C
    C   1.0     0.605507     0.312083     0.239814  Biso 1.000000     C
    C   1.0     0.133149     0.379272     0.293034  Biso 1.000000     C
    C   1.0     0.632711     0.379157     0.293321  Biso 1.000000     C
    C   1.0     0.204075     0.515462     0.310073  Biso 1.000000     C
    C   1.0     0.703920     0.515458     0.308558  Biso 1.000000     C
    C   1.0     0.316851     0.767168     0.331036  Biso 1.000000     C
    C   1.0     0.819248     0.767071     0.331599  Biso 1.000000     C
    C   1.0     0.342680     0.835899     0.273754  Biso 1.000000     C
    C   1.0     0.844781     0.836135     0.274338  Biso 1.000000     C
    C   1.0     0.336509     0.820685     0.189409  Biso 1.000000     C
    C   1.0     0.838619     0.821149     0.189970  Biso 1.000000     C
    C   1.0     0.361051     0.880003     0.131579  Biso 1.000000     C
    C   1.0     0.862704     0.881075     0.132302  Biso 1.000000     C
    C   1.0     0.391414     0.956814     0.156405  Biso 1.000000     C
    C   1.0     0.892704     0.958186     0.157229  Biso 1.000000     C
    C   1.0     0.423197     0.058459     0.273217  Biso 1.000000     C
    C   1.0     0.924373     0.059487     0.274439  Biso 1.000000     C
    C   1.0     0.426018     0.077246     0.356829  Biso 1.000000     C
    C   1.0     0.927101     0.077940     0.358126  Biso 1.000000     C
    C   1.0     0.403413     0.015751     0.415124  Biso 1.000000     C
    C   1.0     0.904663     0.016086     0.416227  Biso 1.000000     C
    C   1.0     0.377488     0.936572     0.388296  Biso 1.000000     C
    C   1.0     0.879088     0.936773     0.389115  Biso 1.000000     C
    C   1.0     0.372749     0.915212     0.302602  Biso 1.000000     C
    C   1.0     0.874484     0.915689     0.303350  Biso 1.000000     C
    C   1.0     0.396839     0.977420     0.243087  Biso 1.000000     C
    C   1.0     0.898262     0.978402     0.243994  Biso 1.000000     C
    C   1.0     0.418211     0.013532     0.089025  Biso 1.000000     C
    C   1.0     0.918689     0.015509     0.089594  Biso 1.000000     C
    C   1.0     0.263504     0.505497     0.529779  Biso 1.000000     C
    C   1.0     0.763604     0.505351     0.527880  Biso 1.000000     C
    C   1.0     0.286875     0.452690     0.592960  Biso 1.000000     C
    C   1.0     0.786950     0.452469     0.590989  Biso 1.000000     C
    C   1.0     0.348430     0.456045     0.609860  Biso 1.000000     C
    C   1.0     0.848522     0.455593     0.607724  Biso 1.000000     C
    C   1.0     0.383475     0.512430     0.560100  Biso 1.000000     C
    C   1.0     0.883639     0.511735     0.557855  Biso 1.000000     C
    C   1.0     0.356339     0.563174     0.498041  Biso 1.000000     C
    C   1.0     0.856538     0.562622     0.495888  Biso 1.000000     C
    C   1.0     0.372987     0.405153     0.676015  Biso 1.000000     C
    C   1.0     0.872999     0.404751     0.673923  Biso 1.000000     C
    C   1.0     0.391271     0.361605     0.735079  Biso 1.000000     C
    C   1.0     0.891099     0.361337     0.733158  Biso 1.000000     C
    C   1.0     0.413029     0.312090     0.804038  Biso 1.000000     C
    C   1.0     0.912774     0.312356     0.802450  Biso 1.000000     C
    C   1.0     0.383423     0.234370     0.832122  Biso 1.000000     C
    C   1.0     0.883150     0.234893     0.831069  Biso 1.000000     C
    C   1.0     0.407104     0.186997     0.899008  Biso 1.000000     C
    C   1.0     0.906816     0.188181     0.898363  Biso 1.000000     C
    C   1.0     0.485888     0.288126     0.912517  Biso 1.000000     C
    C   1.0     0.985511     0.289608     0.911249  Biso 1.000000     C
    C   1.0     0.465242     0.339347     0.846370  Biso 1.000000     C
    C   1.0     0.964947     0.340092     0.844604  Biso 1.000000     C
    C   1.0     0.240940     0.757805     0.548136  Biso 1.000000     C
    C   1.0     0.741113     0.758085     0.546639  Biso 1.000000     C
    C   1.0     0.215483     0.807930     0.610554  Biso 1.000000     C
    C   1.0     0.715676     0.808133     0.609117  Biso 1.000000     C
    C   1.0     0.153461     0.820709     0.609520  Biso 1.000000     C
    C   1.0     0.653602     0.820280     0.608505  Biso 1.000000     C
    C   1.0     0.120387     0.783232     0.543152  Biso 1.000000     C
    C   1.0     0.620418     0.782249     0.542509  Biso 1.000000     C
    C   1.0     0.149528     0.733579     0.483485  Biso 1.000000     C
    C   1.0     0.649540     0.732751     0.482726  Biso 1.000000     C
    C   1.0     0.126473     0.868461     0.674572  Biso 1.000000     C
    C   1.0     0.626674     0.867945     0.673647  Biso 1.000000     C
    C   1.0     0.106632     0.908580     0.733793  Biso 1.000000     C
    C   1.0     0.606924     0.908004     0.732957  Biso 1.000000     C
    C   1.0     0.085578     0.956891     0.802915  Biso 1.000000     C
    C   1.0     0.585851     0.955966     0.802255  Biso 1.000000     C
    C   1.0     0.118146     0.030687     0.834869  Biso 1.000000     C
    C   1.0     0.618330     0.029673     0.834566  Biso 1.000000     C
    C   1.0     0.095951     0.077844     0.901773  Biso 1.000000     C
    C   1.0     0.596072     0.076331     0.901726  Biso 1.000000     C
    C   1.0     0.013054     0.983931     0.907976  Biso 1.000000     C
    C   1.0     0.513305     0.982088     0.907467  Biso 1.000000     C
    C   1.0     0.032101     0.933138     0.841480  Biso 1.000000     C
    C   1.0     0.532389     0.931837     0.840662  Biso 1.000000     C
    N   1.0     0.202442     0.060421     0.517181  Biso 1.000000     N
    N   1.0     0.702724     0.060246     0.516006  Biso 1.000000     N
    N   1.0     0.042531     0.714640     0.059717  Biso 1.000000     N
    N   1.0     0.541928     0.713324     0.059450  Biso 1.000000     N
    N   1.0     0.290972     0.220498     0.514226  Biso 1.000000     N
    N   1.0     0.791085     0.220299     0.513044  Biso 1.000000     N
    N   1.0     0.455568     0.553853     0.059926  Biso 1.000000     N
    N   1.0     0.956027     0.555410     0.059818  Biso 1.000000     N
    N   1.0     0.297191     0.560415     0.483042  Biso 1.000000     N
    N   1.0     0.797354     0.560145     0.481108  Biso 1.000000     N
    N   1.0     0.457757     0.212931     0.938619  Biso 1.000000     N
    N   1.0     0.957385     0.214653     0.937862  Biso 1.000000     N
    N   1.0     0.208781     0.720180     0.485803  Biso 1.000000     N
    N   1.0     0.708864     0.719998     0.484635  Biso 1.000000     N
    N   1.0     0.044052     0.055500     0.937815  Biso 1.000000     N
    N   1.0     0.544239     0.053520     0.937698  Biso 1.000000     N
    O   1.0     0.463523     0.718677     0.889531  Biso 1.000000     O
    O   1.0     0.963061     0.723000     0.892552  Biso 1.000000     O
    O   1.0     0.388067     0.741964     0.976544  Biso 1.000000     O
    O   1.0     0.885767     0.742171     0.977530  Biso 1.000000     O
    O   1.0     0.322787     0.059083     0.631606  Biso 1.000000     O
    O   1.0     0.822862     0.058977     0.631288  Biso 1.000000     O
    O   1.0     0.242428     0.030759     0.706255  Biso 1.000000     O
    O   1.0     0.742054     0.031129     0.705135  Biso 1.000000     O
    O   1.0     0.231482     0.234009     0.690255  Biso 1.000000     O
    O   1.0     0.733891     0.234308     0.690723  Biso 1.000000     O
    O   1.0     0.153926     0.242337     0.601649  Biso 1.000000     O
    O   1.0     0.656269     0.242132     0.602445  Biso 1.000000     O
    O   1.0     0.106514     0.520278     0.977338  Biso 1.000000     O
    O   1.0     0.608825     0.520034     0.978377  Biso 1.000000     O
    O   1.0     0.031132     0.554819     0.889212  Biso 1.000000     O
    O   1.0     0.531624     0.550396     0.891861  Biso 1.000000     O
    O   1.0     0.036767     0.223267     0.104647  Biso 1.000000     O
    O   1.0     0.536380     0.218856     0.107403  Biso 1.000000     O
    O   1.0     0.114564     0.242307     0.020538  Biso 1.000000     O
    O   1.0     0.612061     0.242184     0.020717  Biso 1.000000     O
    O   1.0     0.177146     0.558599     0.367850  Biso 1.000000     O
    O   1.0     0.677385     0.558916     0.366581  Biso 1.000000     O
    O   1.0     0.257972     0.531155     0.294061  Biso 1.000000     O
    O   1.0     0.757625     0.531055     0.291607  Biso 1.000000     O
    O   1.0     0.265790     0.734393     0.308633  Biso 1.000000     O
    O   1.0     0.768189     0.734239     0.309010  Biso 1.000000     O
    O   1.0     0.343846     0.742132     0.396107  Biso 1.000000     O
    O   1.0     0.846352     0.742212     0.396520  Biso 1.000000     O
    O   1.0     0.392960     0.000000     0.019749  Biso 1.000000     O
    O   1.0     0.893252     0.000000     0.020349  Biso 1.000000     O
    O   1.0     0.469035     0.050857     0.107639  Biso 1.000000     O
    O   1.0     0.968958     0.054738     0.107876  Biso 1.000000     O
   Zn   1.0     0.497156     0.633680     0.972444  Biso 1.000000    Zn
   Zn   1.0     0.997352     0.636147     0.972522  Biso 1.000000    Zn
   Zn   1.0     0.247541     0.140375     0.604124  Biso 1.000000    Zn
   Zn   1.0     0.747675     0.140398     0.603423  Biso 1.000000    Zn
   Zn   1.0     0.002673     0.136251     0.024463  Biso 1.000000    Zn
   Zn   1.0     0.502775     0.133205     0.024849  Biso 1.000000    Zn
   Zn   1.0     0.252258     0.640351     0.396050  Biso 1.000000    Zn
   Zn   1.0     0.752325     0.640344     0.395085  Biso 1.000000    Zn
