#======================================================================

# CRYSTAL DATA

#----------------------------------------------------------------------

data_VESTA_phase_1


_pd_phase_name                         MOF
_cell_length_a                         18.74600
_cell_length_b                         18.76700
_cell_length_c                         18.76200
_cell_angle_alpha                      60.03900
_cell_angle_beta                       60.06800
_cell_angle_gamma                      60.00000
_symmetry_space_group_name_H-M         "P 1"
_symmetry_Int_Tables_number            1

loop_
_symmetry_equiv_pos_as_xyz
   "x, y, z"

loop_
   _atom_site_label
   _atom_site_occupancy
   _atom_site_fract_x
   _atom_site_fract_y
   _atom_site_fract_z
   _atom_site_adp_type
   _atom_site_B_iso_or_equiv
   _atom_site_type_symbol
    H   1.0     0.266434     0.495560     0.971715  Biso 1.000000     H
    H   1.0     0.495638     0.265933     0.265729  Biso 1.000000     H
    H   1.0     0.972599     0.265840     0.265915  Biso 1.000000     H
    H   1.0     0.266450     0.971703     0.495407  Biso 1.000000     H
    H   1.0     0.266094     0.971956     0.265899  Biso 1.000000     H
    H   1.0     0.496081     0.265973     0.971896  Biso 1.000000     H
    H   1.0     0.972332     0.266003     0.495527  Biso 1.000000     H
    H   1.0     0.266072     0.495623     0.265920  Biso 1.000000     H
    H   1.0     0.266273     0.266117     0.495202  Biso 1.000000     H
    H   1.0     0.495800     0.972018     0.265932  Biso 1.000000     H
    H   1.0     0.972387     0.495354     0.266103  Biso 1.000000     H
    H   1.0     0.266266     0.266013     0.971989  Biso 1.000000     H
    H   1.0     0.503866     0.734044     0.028111  Biso 1.000000     H
    H   1.0     0.733843     0.504337     0.734150  Biso 1.000000     H
    H   1.0     0.733858     0.028020     0.734123  Biso 1.000000     H
    H   1.0     0.027639     0.733949     0.504506  Biso 1.000000     H
    H   1.0     0.027359     0.734120     0.734121  Biso 1.000000     H
    H   1.0     0.733482     0.504428     0.028299  Biso 1.000000     H
    H   1.0     0.733616     0.028244     0.504574  Biso 1.000000     H
    H   1.0     0.504342     0.734094     0.734187  Biso 1.000000     H
    H   1.0     0.733774     0.733754     0.504780  Biso 1.000000     H
    H   1.0     0.027561     0.504608     0.733940  Biso 1.000000     H
    H   1.0     0.504218     0.027915     0.734000  Biso 1.000000     H
    H   1.0     0.733704     0.733946     0.028031  Biso 1.000000     H
    C   1.0     0.300333     0.429112     0.970367  Biso 1.000000     C
    C   1.0     0.429203     0.299884     0.299668  Biso 1.000000     C
    C   1.0     0.971159     0.299780     0.299856  Biso 1.000000     C
    C   1.0     0.300293     0.970374     0.428978  Biso 1.000000     C
    C   1.0     0.300085     0.970518     0.299837  Biso 1.000000     C
    C   1.0     0.429581     0.299918     0.970464  Biso 1.000000     C
    C   1.0     0.971003     0.299873     0.429074  Biso 1.000000     C
    C   1.0     0.300006     0.429148     0.299782  Biso 1.000000     C
    C   1.0     0.300124     0.300005     0.428793  Biso 1.000000     C
    C   1.0     0.429361     0.970554     0.299854  Biso 1.000000     C
    C   1.0     0.971037     0.428930     0.299966  Biso 1.000000     C
    C   1.0     0.300236     0.299955     0.970521  Biso 1.000000     C
    C   1.0     0.570365     0.700086     0.029547  Biso 1.000000     C
    C   1.0     0.699938     0.570807     0.700249  Biso 1.000000     C
    C   1.0     0.699897     0.029441     0.700167  Biso 1.000000     C
    C   1.0     0.028963     0.700083     0.570961  Biso 1.000000     C
    C   1.0     0.028799     0.700180     0.700181  Biso 1.000000     C
    C   1.0     0.699596     0.570875     0.029650  Biso 1.000000     C
    C   1.0     0.699750     0.029568     0.571004  Biso 1.000000     C
    C   1.0     0.570776     0.700107     0.700281  Biso 1.000000     C
    C   1.0     0.699891     0.699904     0.571191  Biso 1.000000     C
    C   1.0     0.028913     0.571031     0.700074  Biso 1.000000     C
    C   1.0     0.570657     0.029384     0.700103  Biso 1.000000     C
    C   1.0     0.699722     0.700016     0.029498  Biso 1.000000     C
    C   1.0     0.386501     0.386022     0.970463  Biso 1.000000     C
    C   1.0     0.430630     0.430162     0.975889  Biso 1.000000     C
    C   1.0     0.386082     0.386009     0.256643  Biso 1.000000     C
    C   1.0     0.430193     0.430163     0.163066  Biso 1.000000     C
    C   1.0     0.971179     0.256730     0.385957  Biso 1.000000     C
    C   1.0     0.976479     0.163121     0.430122  Biso 1.000000     C
    C   1.0     0.257073     0.970497     0.385921  Biso 1.000000     C
    C   1.0     0.163371     0.975887     0.430090  Biso 1.000000     C
    C   1.0     0.386179     0.970690     0.256746  Biso 1.000000     C
    C   1.0     0.430230     0.976210     0.163103  Biso 1.000000     C
    C   1.0     0.386408     0.256833     0.970622  Biso 1.000000     C
    C   1.0     0.430490     0.163167     0.976134  Biso 1.000000     C
    C   1.0     0.971047     0.385936     0.386065  Biso 1.000000     C
    C   1.0     0.976258     0.430149     0.430290  Biso 1.000000     C
    C   1.0     0.256955     0.386130     0.385828  Biso 1.000000     C
    C   1.0     0.163305     0.430348     0.430069  Biso 1.000000     C
    C   1.0     0.386196     0.256818     0.385708  Biso 1.000000     C
    C   1.0     0.430376     0.163165     0.429872  Biso 1.000000     C
    C   1.0     0.386379     0.970545     0.385925  Biso 1.000000     C
    C   1.0     0.430541     0.975978     0.430079  Biso 1.000000     C
    C   1.0     0.971233     0.385840     0.256785  Biso 1.000000     C
    C   1.0     0.976564     0.429999     0.163146  Biso 1.000000     C
    C   1.0     0.257126     0.386051     0.970545  Biso 1.000000     C
    C   1.0     0.163357     0.430203     0.976022  Biso 1.000000     C
    C   1.0     0.613430     0.613984     0.029543  Biso 1.000000     C
    C   1.0     0.569287     0.569860     0.024116  Biso 1.000000     C
    C   1.0     0.613860     0.613986     0.743350  Biso 1.000000     C
    C   1.0     0.569721     0.569864     0.836931  Biso 1.000000     C
    C   1.0     0.742937     0.029457     0.614087  Biso 1.000000     C
    C   1.0     0.836639     0.024062     0.569939  Biso 1.000000     C
    C   1.0     0.028788     0.743226     0.614077  Biso 1.000000     C
    C   1.0     0.023510     0.836828     0.569905  Biso 1.000000     C
    C   1.0     0.028713     0.614125     0.743256  Biso 1.000000     C
    C   1.0     0.023377     0.569973     0.836896  Biso 1.000000     C
    C   1.0     0.742816     0.613918     0.029482  Biso 1.000000     C
    C   1.0     0.836583     0.569759     0.024013  Biso 1.000000     C
    C   1.0     0.613666     0.029397     0.614028  Biso 1.000000     C
    C   1.0     0.569531     0.023966     0.569846  Biso 1.000000     C
    C   1.0     0.613822     0.743131     0.614236  Biso 1.000000     C
    C   1.0     0.569683     0.836788     0.570043  Biso 1.000000     C
    C   1.0     0.743024     0.613784     0.614201  Biso 1.000000     C
    C   1.0     0.836678     0.569550     0.569989  Biso 1.000000     C
    C   1.0     0.028913     0.614021     0.613971  Biso 1.000000     C
    C   1.0     0.023714     0.569806     0.569739  Biso 1.000000     C
    C   1.0     0.613802     0.029269     0.743233  Biso 1.000000     C
    C   1.0     0.569730     0.023763     0.836875  Biso 1.000000     C
    C   1.0     0.613554     0.743154     0.029390  Biso 1.000000     C
    C   1.0     0.569492     0.836823     0.023860  Biso 1.000000     C
    O   1.0     0.508171     0.386154     0.979009  Biso 1.000000     O
    O   1.0     0.386102     0.507647     0.126578  Biso 1.000000     O
    O   1.0     0.979622     0.126634     0.507567  Biso 1.000000     O
    O   1.0     0.126677     0.978998     0.386132  Biso 1.000000     O
    O   1.0     0.507758     0.979219     0.126676  Biso 1.000000     O
    O   1.0     0.386372     0.126734     0.979155  Biso 1.000000     O
    O   1.0     0.979167     0.507647     0.386341  Biso 1.000000     O
    O   1.0     0.126902     0.386345     0.507531  Biso 1.000000     O
    O   1.0     0.507910     0.126570     0.385972  Biso 1.000000     O
    O   1.0     0.386469     0.979131     0.507485  Biso 1.000000     O
    O   1.0     0.979552     0.386049     0.126580  Biso 1.000000     O
    O   1.0     0.126844     0.507642     0.979172  Biso 1.000000     O
    O   1.0     0.613397     0.492383     0.021072  Biso 1.000000     O
    O   1.0     0.492164     0.613868     0.873389  Biso 1.000000     O
    O   1.0     0.873034     0.020990     0.492500  Biso 1.000000     O
    O   1.0     0.020621     0.873334     0.613851  Biso 1.000000     O
    O   1.0     0.020347     0.492516     0.873334  Biso 1.000000     O
    O   1.0     0.873180     0.613734     0.020956  Biso 1.000000     O
    O   1.0     0.492012     0.020944     0.613758  Biso 1.000000     O
    O   1.0     0.613752     0.873201     0.492624  Biso 1.000000     O
    O   1.0     0.873301     0.492066     0.613935  Biso 1.000000     O
    O   1.0     0.020601     0.613803     0.492288  Biso 1.000000     O
    O   1.0     0.613841     0.020594     0.873454  Biso 1.000000     O
    O   1.0     0.491967     0.873419     0.020686  Biso 1.000000     O
    O   1.0     0.491752     0.613884     0.020977  Biso 1.000000     O
    O   1.0     0.613808     0.492386     0.873434  Biso 1.000000     O
    O   1.0     0.020406     0.873307     0.492446  Biso 1.000000     O
    O   1.0     0.873320     0.020976     0.613894  Biso 1.000000     O
    O   1.0     0.492210     0.020735     0.873302  Biso 1.000000     O
    O   1.0     0.613627     0.873257     0.020809  Biso 1.000000     O
    O   1.0     0.020864     0.492286     0.613664  Biso 1.000000     O
    O   1.0     0.873075     0.613529     0.492510  Biso 1.000000     O
    O   1.0     0.492148     0.873394     0.613929  Biso 1.000000     O
    O   1.0     0.613610     0.020821     0.492437  Biso 1.000000     O
    O   1.0     0.020396     0.613925     0.873454  Biso 1.000000     O
    O   1.0     0.873096     0.492316     0.020873  Biso 1.000000     O
    O   1.0     0.386507     0.507632     0.978954  Biso 1.000000     O
    O   1.0     0.507746     0.386166     0.126593  Biso 1.000000     O
    O   1.0     0.126991     0.978924     0.507541  Biso 1.000000     O
    O   1.0     0.979347     0.126620     0.386184  Biso 1.000000     O
    O   1.0     0.979590     0.507458     0.126710  Biso 1.000000     O
    O   1.0     0.126761     0.386228     0.979078  Biso 1.000000     O
    O   1.0     0.508061     0.978996     0.386158  Biso 1.000000     O
    O   1.0     0.386330     0.126742     0.507299  Biso 1.000000     O
    O   1.0     0.126691     0.507856     0.386153  Biso 1.000000     O
    O   1.0     0.979327     0.386171     0.507758  Biso 1.000000     O
    O   1.0     0.386106     0.979408     0.126521  Biso 1.000000     O
    O   1.0     0.508008     0.126572     0.979326  Biso 1.000000     O
   Cu   1.0     0.565473     0.434612     0.000011  Biso 1.000000    Cu
   Cu   1.0     0.434429     0.565425    -0.000026  Biso 1.000000    Cu
   Cu   1.0     0.000178    -0.000006     0.565362  Biso 1.000000    Cu
   Cu   1.0    -0.000152    -0.000023     0.434666  Biso 1.000000    Cu
   Cu   1.0     0.565493    -0.000086     0.000063  Biso 1.000000    Cu
   Cu   1.0     0.434472     0.000101    -0.000103  Biso 1.000000    Cu
   Cu   1.0    -0.000120     0.565384     0.434662  Biso 1.000000    Cu
   Cu   1.0     0.000125     0.434548     0.565378  Biso 1.000000    Cu
   Cu   1.0     0.565530    -0.000111     0.434643  Biso 1.000000    Cu
   Cu   1.0     0.434554     0.000091     0.565259  Biso 1.000000    Cu
   Cu   1.0    -0.000064     0.434628    -0.000057  Biso 1.000000    Cu
   Cu   1.0     0.000021     0.565348     0.000079  Biso 1.000000    Cu
