#======================================================================

# CRYSTAL DATA

#----------------------------------------------------------------------

data_VESTA_phase_1


_pd_phase_name                         MOF
_cell_length_a                         17.24300
_cell_length_b                         17.39300
_cell_length_c                         17.38200
_cell_angle_alpha                      90.06000
_cell_angle_beta                       90.00600
_cell_angle_gamma                      90.05400
_symmetry_space_group_name_H-M         "P 1"
_symmetry_Int_Tables_number            1

loop_
_symmetry_equiv_pos_as_xyz
   "x, y, z"

loop_
   _atom_site_label
   _atom_site_occupancy
   _atom_site_fract_x
   _atom_site_fract_y
   _atom_site_fract_z
   _atom_site_adp_type
   _atom_site_B_iso_or_equiv
   _atom_site_type_symbol
    H   1.0     0.047837     0.887784     0.194527  Biso 1.000000     H
    H   1.0     0.054198     0.886955     0.051379  Biso 1.000000     H
    H   1.0     0.155529     0.110062     0.198234  Biso 1.000000     H
    H   1.0     0.481465     0.909878     0.705713  Biso 1.000000     H
    H   1.0     0.202501     0.232286     0.038610  Biso 1.000000     H
    H   1.0     0.233793     0.180700     0.122362  Biso 1.000000     H
    H   1.0     0.135498     0.214856     0.115572  Biso 1.000000     H
    H   1.0     0.044775     0.108071     0.805570  Biso 1.000000     H
    H   1.0     0.051872     0.108800     0.948658  Biso 1.000000     H
    H   1.0     0.155725     0.887587     0.801018  Biso 1.000000     H
    H   1.0     0.207947     0.767023     0.960208  Biso 1.000000     H
    H   1.0     0.236159     0.818934     0.875607  Biso 1.000000     H
    H   1.0     0.138900     0.782470     0.884609  Biso 1.000000     H
    H   1.0     0.055361     0.308832     0.610069  Biso 1.000000     H
    H   1.0     0.061188     0.451919     0.605397  Biso 1.000000     H
    H   1.0     0.141712     0.298182     0.378841  Biso 1.000000     H
    H   1.0     0.562187     0.844835     0.703965  Biso 1.000000     H
    H   1.0     0.111046     0.377093     0.273134  Biso 1.000000     H
    H   1.0     0.212219     0.372014     0.298620  Biso 1.000000     H
    H   1.0     0.175572     0.453518     0.247021  Biso 1.000000     H
    H   1.0     0.045454     0.698321     0.385745  Biso 1.000000     H
    H   1.0     0.049233     0.555803     0.378977  Biso 1.000000     H
    H   1.0     0.161567     0.692534     0.604271  Biso 1.000000     H
    H   1.0     0.800882     0.046113     0.614840  Biso 1.000000     H
    H   1.0     0.656297     0.040570     0.618142  Biso 1.000000     H
    H   1.0     0.799890     0.951665     0.386710  Biso 1.000000     H
    H   1.0     0.654946     0.951716     0.386947  Biso 1.000000     H
    H   1.0     0.401849     0.927539     0.600856  Biso 1.000000     H
    H   1.0     0.481305     0.829273     0.640895  Biso 1.000000     H
    H   1.0     0.407368     0.069217     0.399302  Biso 1.000000     H
    H   1.0     0.956102     0.195603     0.108888  Biso 1.000000     H
    H   1.0     0.950904     0.052525     0.110484  Biso 1.000000     H
    H   1.0     0.844673     0.196998     0.888350  Biso 1.000000     H
    H   1.0     0.523360     0.707463     0.089611  Biso 1.000000     H
    H   1.0     0.861754     0.113300     0.783637  Biso 1.000000     H
    H   1.0     0.764547     0.120128     0.820658  Biso 1.000000     H
    H   1.0     0.794398     0.036042     0.768739  Biso 1.000000     H
    H   1.0     0.956297     0.805220     0.890127  Biso 1.000000     H
    H   1.0     0.949235     0.948188     0.889185  Biso 1.000000     H
    H   1.0     0.849106     0.801649     0.112671  Biso 1.000000     H
    H   1.0     0.870226     0.885127     0.217315  Biso 1.000000     H
    H   1.0     0.771595     0.876806     0.184353  Biso 1.000000     H
    H   1.0     0.802478     0.961239     0.235227  Biso 1.000000     H
    H   1.0     0.962702     0.609998     0.699627  Biso 1.000000     H
    H   1.0     0.958146     0.616331     0.556926  Biso 1.000000     H
    H   1.0     0.837864     0.396181     0.694785  Biso 1.000000     H
    H   1.0     0.443870     0.710400     0.156205  Biso 1.000000     H
    H   1.0     0.944556     0.388534     0.309218  Biso 1.000000     H
    H   1.0     0.939479     0.392275     0.452491  Biso 1.000000     H
    H   1.0     0.858205     0.619597     0.300732  Biso 1.000000     H
    H   1.0     0.786767     0.698317     0.376147  Biso 1.000000     H
    H   1.0     0.887693     0.724758     0.380749  Biso 1.000000     H
    H   1.0     0.823624     0.749606     0.457964  Biso 1.000000     H
    H   1.0     0.201279     0.614443     0.962991  Biso 1.000000     H
    H   1.0     0.345802     0.618075     0.969580  Biso 1.000000     H
    H   1.0     0.201665     0.386974     0.058209  Biso 1.000000     H
    H   1.0     0.346586     0.387728     0.059852  Biso 1.000000     H
    H   1.0     0.601832     0.601616     0.076628  Biso 1.000000     H
    H   1.0     0.524553     0.647851     0.174021  Biso 1.000000     H
    H   1.0     0.592478     0.396834     0.939581  Biso 1.000000     H
    H   1.0     0.161690     0.549407     0.600161  Biso 1.000000     H
    H   1.0     0.552379     0.065839     0.400886  Biso 1.000000     H
    H   1.0     0.837221     0.399550     0.551576  Biso 1.000000     H
    H   1.0     0.447606     0.399088     0.946011  Biso 1.000000     H
    C   1.0     0.101585    -0.000753     0.289848  Biso 1.000000     C
    C   1.0     0.101646     0.999243     0.204240  Biso 1.000000     C
    C   1.0     0.072399     0.936243     0.163341  Biso 1.000000     C
    C   1.0     0.076312     0.936040     0.083463  Biso 1.000000     C
    C   1.0     0.106626     0.998582     0.042332  Biso 1.000000     C
    C   1.0     0.134335     0.062904     0.084513  Biso 1.000000     C
    C   1.0     0.132730     0.062374     0.164725  Biso 1.000000     C
    C   1.0     0.184854     0.191218     0.083031  Biso 1.000000     C
    C   1.0     0.099912     0.997846     0.709831  Biso 1.000000     C
    C   1.0     0.100166    -0.002486     0.795443  Biso 1.000000     C
    C   1.0     0.070292     0.060022     0.836558  Biso 1.000000     C
    C   1.0     0.074688     0.060212     0.916399  Biso 1.000000     C
    C   1.0     0.106390    -0.001739     0.957300  Biso 1.000000     C
    C   1.0     0.135109     0.934557     0.914935  Biso 1.000000     C
    C   1.0     0.132555     0.934915     0.834729  Biso 1.000000     C
    C   1.0     0.188352     0.807451     0.916036  Biso 1.000000     C
    C   1.0     0.099738     0.209748     0.497119  Biso 1.000000     C
    C   1.0     0.098772     0.295468     0.494485  Biso 1.000000     C
    C   1.0     0.075564     0.338296     0.558626  Biso 1.000000     C
    C   1.0     0.079530     0.418191     0.555757  Biso 1.000000     C
    C   1.0     0.103525     0.457434     0.489357  Biso 1.000000     C
    C   1.0     0.124369     0.413221     0.423818  Biso 1.000000     C
    C   1.0     0.123328     0.333087     0.427377  Biso 1.000000     C
    C   1.0     0.162176     0.410575     0.291085  Biso 1.000000     C
    C   1.0     0.102175     0.789902     0.497787  Biso 1.000000     C
    C   1.0     0.103206     0.704331     0.495401  Biso 1.000000     C
    C   1.0     0.071400     0.665166     0.432187  Biso 1.000000     C
    C   1.0     0.073633     0.585429     0.428495  Biso 1.000000     C
    C   1.0     0.105384     0.542387     0.489321  Biso 1.000000     C
    C   1.0     0.136393     0.582057     0.552905  Biso 1.000000     C
    C   1.0     0.136344     0.661960     0.555603  Biso 1.000000     C
    C   1.0     0.768258     0.024590     0.565661  Biso 1.000000     C
    C   1.0     0.687730     0.021839     0.567097  Biso 1.000000     C
    C   1.0     0.767723     0.972030     0.436647  Biso 1.000000     C
    C   1.0     0.687020     0.972009     0.437119  Biso 1.000000     C
    C   1.0     0.517034     0.956725     0.559631  Biso 1.000000     C
    C   1.0     0.436149     0.957875     0.558127  Biso 1.000000     C
    C   1.0     0.517837     0.873058     0.668913  Biso 1.000000     C
    C   1.0     0.519236     0.035301     0.444730  Biso 1.000000     C
    C   1.0     0.438504     0.037617     0.443573  Biso 1.000000     C
    C   1.0     0.895540    -0.000265     0.500061  Biso 1.000000     C
    C   1.0     0.809050    -0.001135     0.500745  Biso 1.000000     C
    C   1.0     0.645838    -0.003829     0.502582  Biso 1.000000     C
    C   1.0     0.560012    -0.003828     0.502387  Biso 1.000000     C
    C   1.0     0.396792    -0.001224     0.500593  Biso 1.000000     C
    C   1.0     0.310185    -0.000102     0.500859  Biso 1.000000     C
    C   1.0     0.899968     0.289870     0.998355  Biso 1.000000     C
    C   1.0     0.900327     0.204219    -0.001707  Biso 1.000000     C
    C   1.0     0.930876     0.163927     0.061018  Biso 1.000000     C
    C   1.0     0.927546     0.084085     0.061709  Biso 1.000000     C
    C   1.0     0.896241     0.042321    -0.000007  Biso 1.000000     C
    C   1.0     0.866986     0.083793     0.935982  Biso 1.000000     C
    C   1.0     0.868370     0.164028     0.935909  Biso 1.000000     C
    C   1.0     0.813205     0.080841     0.808964  Biso 1.000000     C
    C   1.0     0.902504     0.710044     0.001591  Biso 1.000000     C
    C   1.0     0.902629     0.795569     0.000000  Biso 1.000000     C
    C   1.0     0.931647     0.836374     0.938605  Biso 1.000000     C
    C   1.0     0.927328     0.916166     0.938329  Biso 1.000000     C
    C   1.0     0.896818     0.957339     0.000000  Biso 1.000000     C
    C   1.0     0.869542     0.915258     0.065299  Biso 1.000000     C
    C   1.0     0.871607     0.835115     0.064876  Biso 1.000000     C
    C   1.0     0.820170     0.916844     0.194100  Biso 1.000000     C
    C   1.0     0.900309     0.500811     0.791831  Biso 1.000000     C
    C   1.0     0.900308     0.502850     0.706134  Biso 1.000000     C
    C   1.0     0.934594     0.564530     0.666700  Biso 1.000000     C
    C   1.0     0.931965     0.567934     0.586847  Biso 1.000000     C
    C   1.0     0.897353     0.508310     0.544119  Biso 1.000000     C
    C   1.0     0.864530     0.445928     0.584030  Biso 1.000000     C
    C   1.0     0.864898     0.443644     0.663975  Biso 1.000000     C
    C   1.0     0.901528     0.502344     0.211068  Biso 1.000000     C
    C   1.0     0.901518     0.504193     0.296909  Biso 1.000000     C
    C   1.0     0.924636     0.439789     0.339206  Biso 1.000000     C
    C   1.0     0.921096     0.442108     0.419199  Biso 1.000000     C
    C   1.0     0.897668     0.508300     0.459043  Biso 1.000000     C
    C   1.0     0.875933     0.573799     0.415449  Biso 1.000000     C
    C   1.0     0.876640     0.570843     0.335194  Biso 1.000000     C
    C   1.0     0.837045     0.706031     0.414478  Biso 1.000000     C
    C   1.0     0.233785     0.565519     0.984991  Biso 1.000000     C
    C   1.0     0.314269     0.567143     0.988359  Biso 1.000000     C
    C   1.0     0.233976     0.436874     0.038026  Biso 1.000000     C
    C   1.0     0.314669     0.437608     0.038890  Biso 1.000000     C
    C   1.0     0.485874     0.560336     0.050596  Biso 1.000000     C
    C   1.0     0.566715     0.558340     0.047948  Biso 1.000000     C
    C   1.0     0.487402     0.673335     0.129292  Biso 1.000000     C
    C   1.0     0.481573     0.443443     0.974957  Biso 1.000000     C
    C   1.0     0.562217     0.441909     0.970928  Biso 1.000000     C
    C   1.0     0.106425     0.499271     0.007561  Biso 1.000000     C
    C   1.0     0.192837     0.500562     0.010291  Biso 1.000000     C
    C   1.0     0.356038     0.502825     0.014411  Biso 1.000000     C
    C   1.0     0.441843     0.502238     0.013524  Biso 1.000000     C
    C   1.0     0.604975     0.499657     0.007589  Biso 1.000000     C
    C   1.0     0.691533     0.499676     0.004422  Biso 1.000000     C
    O   1.0     0.060118     0.948133     0.323104  Biso 1.000000     O
    O   1.0     0.143276     0.050073     0.323344  Biso 1.000000     O
    O   1.0     0.163212     0.122982     0.042513  Biso 1.000000     O
    O   1.0     0.059976     0.050126     0.676746  Biso 1.000000     O
    O   1.0     0.140229     0.946101     0.676113  Biso 1.000000     O
    O   1.0     0.166043     0.875380     0.956744  Biso 1.000000     O
    O   1.0     0.059803     0.177037     0.549731  Biso 1.000000     O
    O   1.0     0.141195     0.175830     0.446431  Biso 1.000000     O
    O   1.0     0.146584     0.453238     0.359859  Biso 1.000000     O
    O   1.0     0.056690     0.823520     0.450368  Biso 1.000000     O
    O   1.0     0.146553     0.822970     0.546612  Biso 1.000000     O
    O   1.0     0.928710     0.957754     0.449426  Biso 1.000000     O
    O   1.0     0.928982     0.042243     0.550077  Biso 1.000000     O
    O   1.0     0.276539     0.956659     0.550109  Biso 1.000000     O
    O   1.0     0.559498     0.917427     0.613248  Biso 1.000000     O
    O   1.0     0.277024     0.043846     0.452038  Biso 1.000000     O
    O   1.0     0.103122     0.000036     0.500051  Biso 1.000000     O
    O   1.0     0.939794     0.323123     0.050778  Biso 1.000000     O
    O   1.0     0.859692     0.323445     0.946532  Biso 1.000000     O
    O   1.0     0.836912     0.040999     0.876925  Biso 1.000000     O
    O   1.0     0.943264     0.676588     0.950066  Biso 1.000000     O
    O   1.0     0.861167     0.676720     0.052803  Biso 1.000000     O
    O   1.0     0.840411     0.957201     0.125394  Biso 1.000000     O
    O   1.0     0.946874     0.546593     0.826360  Biso 1.000000     O
    O   1.0     0.853489     0.453596     0.823910  Biso 1.000000     O
    O   1.0     0.942404     0.450391     0.178389  Biso 1.000000     O
    O   1.0     0.860228     0.552952     0.176999  Biso 1.000000     O
    O   1.0     0.853599     0.637158     0.456362  Biso 1.000000     O
    O   1.0     0.072602     0.446842     0.046695  Biso 1.000000     O
    O   1.0     0.073496     0.550626     0.966473  Biso 1.000000     O
    O   1.0     0.726174     0.549646     0.046204  Biso 1.000000     O
    O   1.0     0.444507     0.615436     0.089064  Biso 1.000000     O
    O   1.0     0.723572     0.450143     0.960386  Biso 1.000000     O
    O   1.0     0.898300     0.499254     0.000347  Biso 1.000000     O
   Zn   1.0     0.039578     0.933864     0.433431  Biso 1.000000    Zn
   Zn   1.0     0.039797     0.066586     0.566609  Biso 1.000000    Zn
   Zn   1.0     0.166041     0.933177     0.566524  Biso 1.000000    Zn
   Zn   1.0     0.166549     0.066193     0.433285  Biso 1.000000    Zn
   Zn   1.0     0.960643     0.432948     0.067263  Biso 1.000000    Zn
   Zn   1.0     0.963837     0.566206     0.936548  Biso 1.000000    Zn
   Zn   1.0     0.836823     0.566945     0.066833  Biso 1.000000    Zn
   Zn   1.0     0.833727     0.433353     0.933683  Biso 1.000000    Zn
