#======================================================================

# CRYSTAL DATA

#----------------------------------------------------------------------

data_VESTA_phase_1


_pd_phase_name                         MOF
_cell_length_a                         23.16800
_cell_length_b                         12.86700
_cell_length_c                         12.88300
_cell_angle_alpha                      89.85900
_cell_angle_beta                       89.90200
_cell_angle_gamma                      90.03900
_symmetry_space_group_name_H-M         "P 1"
_symmetry_Int_Tables_number            1

loop_
_symmetry_equiv_pos_as_xyz
   "x, y, z"

loop_
   _atom_site_label
   _atom_site_occupancy
   _atom_site_fract_x
   _atom_site_fract_y
   _atom_site_fract_z
   _atom_site_adp_type
   _atom_site_B_iso_or_equiv
   _atom_site_type_symbol
    H   1.0     0.475140     0.497371     0.400879  Biso 1.000000     H
    H   1.0     0.976257     0.497178     0.397595  Biso 1.000000     H
    H   1.0     0.346595     0.484092     0.177548  Biso 1.000000     H
    H   1.0     0.842870     0.477666     0.183932  Biso 1.000000     H
    H   1.0     0.383624     0.310460     0.117428  Biso 1.000000     H
    H   1.0     0.880728     0.305242     0.121924  Biso 1.000000     H
    H   1.0     0.225796     0.504594     0.602575  Biso 1.000000     H
    H   1.0     0.726417     0.503449     0.604209  Biso 1.000000     H
    H   1.0     0.094527     0.520090     0.821386  Biso 1.000000     H
    H   1.0     0.594627     0.520342     0.821938  Biso 1.000000     H
    H   1.0     0.131770     0.693211     0.882563  Biso 1.000000     H
    H   1.0     0.631963     0.693483     0.882769  Biso 1.000000     H
    H   1.0     0.100242     0.101714     0.997202  Biso 1.000000     H
    H   1.0     0.600054     0.100758     0.997193  Biso 1.000000     H
    H   1.0     0.470663     0.323085     0.982804  Biso 1.000000     H
    H   1.0     0.969789     0.321807     0.981541  Biso 1.000000     H
    H   1.0     0.007136     0.383039     0.808324  Biso 1.000000     H
    H   1.0     0.507292     0.382797     0.808637  Biso 1.000000     H
    H   1.0     0.351229     0.899607     0.003662  Biso 1.000000     H
    H   1.0     0.850105     0.901215     0.005848  Biso 1.000000     H
    H   1.0     0.220605     0.679368     0.019649  Biso 1.000000     H
    H   1.0     0.720883     0.678280     0.019989  Biso 1.000000     H
    H   1.0     0.257446     0.618690     0.193141  Biso 1.000000     H
    H   1.0     0.757640     0.617632     0.193504  Biso 1.000000     H
    H   1.0     0.150071     0.005268     0.901142  Biso 1.000000     H
    H   1.0     0.648898     0.003150     0.899453  Biso 1.000000     H
    H   1.0     0.279348     0.019767     0.678366  Biso 1.000000     H
    H   1.0     0.779658     0.019441     0.679531  Biso 1.000000     H
    H   1.0     0.242419     0.193488     0.617957  Biso 1.000000     H
    H   1.0     0.742644     0.193093     0.618946  Biso 1.000000     H
    H   1.0     0.400284     0.997112     0.100949  Biso 1.000000     H
    H   1.0     0.900257     0.996862     0.101943  Biso 1.000000     H
    H   1.0     0.030178     0.980792     0.322533  Biso 1.000000     H
    H   1.0     0.529304     0.982389     0.323453  Biso 1.000000     H
    H   1.0     0.492437     0.808198     0.383203  Biso 1.000000     H
    H   1.0     0.992532     0.807543     0.383682  Biso 1.000000     H
    H   1.0     0.023653     0.397372     0.497369  Biso 1.000000     H
    H   1.0     0.524849     0.400839     0.497334  Biso 1.000000     H
    H   1.0     0.157290     0.183697     0.477897  Biso 1.000000     H
    H   1.0     0.653552     0.177283     0.484149  Biso 1.000000     H
    H   1.0     0.119551     0.121410     0.305763  Biso 1.000000     H
    H   1.0     0.616628     0.116951     0.310797  Biso 1.000000     H
    H   1.0     0.273836     0.603692     0.504146  Biso 1.000000     H
    H   1.0     0.774478     0.602077     0.505408  Biso 1.000000     H
    H   1.0     0.405596     0.821522     0.520805  Biso 1.000000     H
    H   1.0     0.905649     0.821129     0.520622  Biso 1.000000     H
    H   1.0     0.368537     0.881855     0.694192  Biso 1.000000     H
    H   1.0     0.868825     0.881521     0.694146  Biso 1.000000     H
    C   1.0     0.475247     0.356991     0.305857  Biso 1.000000     C
    C   1.0     0.974845     0.355117     0.305436  Biso 1.000000     C
    C   1.0     0.455103     0.454567     0.337722  Biso 1.000000     C
    C   1.0     0.954967     0.453005     0.336778  Biso 1.000000     C
    C   1.0     0.384306     0.448780     0.213225  Biso 1.000000     C
    C   1.0     0.881710     0.443976     0.217189  Biso 1.000000     C
    C   1.0     0.404586     0.352406     0.180464  Biso 1.000000     C
    C   1.0     0.902268     0.347937     0.183823  Biso 1.000000     C
    C   1.0     0.224919     0.645671     0.696406  Biso 1.000000     C
    C   1.0     0.725420     0.644931     0.697364  Biso 1.000000     C
    C   1.0     0.205012     0.547897     0.664675  Biso 1.000000     C
    C   1.0     0.705507     0.547098     0.665919  Biso 1.000000     C
    C   1.0     0.132810     0.554844     0.786840  Biso 1.000000     C
    C   1.0     0.633045     0.554765     0.787574  Biso 1.000000     C
    C   1.0     0.153116     0.651106     0.819984  Biso 1.000000     C
    C   1.0     0.653401     0.651060     0.820504  Biso 1.000000     C
    C   1.0     0.099994     0.196516     0.856397  Biso 1.000000     C
    C   1.0     0.599672     0.195367     0.856250  Biso 1.000000     C
    C   1.0     0.079835     0.164390     0.953977  Biso 1.000000     C
    C   1.0     0.579702     0.163582     0.954081  Biso 1.000000     C
    C   1.0     0.007966     0.287105     0.946877  Biso 1.000000     C
    C   1.0     0.508390     0.287403     0.947556  Biso 1.000000     C
    C   1.0     0.028380     0.320365     0.850626  Biso 1.000000     C
    C   1.0     0.528454     0.319976     0.850874  Biso 1.000000     C
    C   1.0     0.350447     0.805308     0.144821  Biso 1.000000     C
    C   1.0     0.850064     0.805443     0.146140  Biso 1.000000     C
    C   1.0     0.330588     0.837152     0.047068  Biso 1.000000     C
    C   1.0     0.829895     0.837962     0.048788  Biso 1.000000     C
    C   1.0     0.258672     0.714303     0.054354  Biso 1.000000     C
    C   1.0     0.758661     0.713796     0.055110  Biso 1.000000     C
    C   1.0     0.278777     0.681362     0.150766  Biso 1.000000     C
    C   1.0     0.778839     0.680650     0.151400  Biso 1.000000     C
    C   1.0     0.150061     0.145856     0.805703  Biso 1.000000     C
    C   1.0     0.649638     0.144554     0.805400  Biso 1.000000     C
    C   1.0     0.170287     0.048350     0.838024  Biso 1.000000     C
    C   1.0     0.669556     0.046672     0.837129  Biso 1.000000     C
    C   1.0     0.241532     0.054858     0.713917  Biso 1.000000     C
    C   1.0     0.741532     0.054114     0.714425  Biso 1.000000     C
    C   1.0     0.221262     0.151267     0.680915  Biso 1.000000     C
    C   1.0     0.721335     0.150620     0.681551  Biso 1.000000     C
    C   1.0     0.400381     0.856093     0.195626  Biso 1.000000     C
    C   1.0     0.900114     0.855994     0.196832  Biso 1.000000     C
    C   1.0     0.420493     0.953915     0.163821  Biso 1.000000     C
    C   1.0     0.920464     0.953540     0.164723  Biso 1.000000     C
    C   1.0     0.491608     0.947195     0.287749  Biso 1.000000     C
    C   1.0     0.992055     0.946196     0.287707  Biso 1.000000     C
    C   1.0     0.471405     0.850527     0.320333  Biso 1.000000     C
    C   1.0     0.971472     0.849958     0.320908  Biso 1.000000     C
    C   1.0     0.025240     0.305065     0.355487  Biso 1.000000     C
    C   1.0     0.524875     0.305629     0.357175  Biso 1.000000     C
    C   1.0     0.045030     0.336517     0.453244  Biso 1.000000     C
    C   1.0     0.544947     0.337591     0.454610  Biso 1.000000     C
    C   1.0     0.118420     0.216891     0.444258  Biso 1.000000     C
    C   1.0     0.615827     0.212958     0.448883  Biso 1.000000     C
    C   1.0     0.097935     0.183385     0.348376  Biso 1.000000     C
    C   1.0     0.595609     0.180087     0.352658  Biso 1.000000     C
    C   1.0     0.275010     0.696540     0.645719  Biso 1.000000     C
    C   1.0     0.775533     0.695610     0.646569  Biso 1.000000     C
    C   1.0     0.294798     0.665312     0.547793  Biso 1.000000     C
    C   1.0     0.795309     0.664102     0.548700  Biso 1.000000     C
    C   1.0     0.367265     0.786985     0.555359  Biso 1.000000     C
    C   1.0     0.867491     0.786329     0.555530  Biso 1.000000     C
    C   1.0     0.347061     0.819644     0.651784  Biso 1.000000     C
    C   1.0     0.847400     0.819074     0.652008  Biso 1.000000     C
    N   1.0     0.449938     0.306628     0.225928  Biso 1.000000     N
    N   1.0     0.948660     0.303509     0.227215  Biso 1.000000     N
    N   1.0     0.409673     0.500324     0.291577  Biso 1.000000     N
    N   1.0     0.908340     0.497259     0.293021  Biso 1.000000     N
    N   1.0     0.199039     0.696484     0.775562  Biso 1.000000     N
    N   1.0     0.699449     0.696110     0.776190  Biso 1.000000     N
    N   1.0     0.158930     0.502642     0.709604  Biso 1.000000     N
    N   1.0     0.659267     0.502201     0.710688  Biso 1.000000     N
    N   1.0     0.074270     0.275935     0.805465  Biso 1.000000     N
    N   1.0     0.574039     0.274882     0.805372  Biso 1.000000     N
    N   1.0     0.033861     0.209466    -0.000895  Biso 1.000000     N
    N   1.0     0.534118     0.209477    -0.000349  Biso 1.000000     N
    N   1.0     0.324548     0.726023     0.195919  Biso 1.000000     N
    N   1.0     0.824482     0.725526     0.196758  Biso 1.000000     N
    N   1.0     0.284700     0.791879     0.000000  Biso 1.000000     N
    N   1.0     0.784284     0.792194     0.000000  Biso 1.000000     N
    N   1.0     0.175589     0.196619     0.725872  Biso 1.000000     N
    N   1.0     0.675512     0.195768     0.726211  Biso 1.000000     N
    N   1.0     0.215942     0.000000     0.792210  Biso 1.000000     N
    N   1.0     0.715512     0.000000     0.791889  Biso 1.000000     N
    N   1.0     0.425862     0.805134     0.275173  Biso 1.000000     N
    N   1.0     0.925636     0.804952     0.276318  Biso 1.000000     N
    N   1.0     0.466041    -0.000654     0.209768  Biso 1.000000     N
    N   1.0     0.966377    -0.001499     0.209962  Biso 1.000000     N
    N   1.0     0.051519     0.226735     0.303990  Biso 1.000000     N
    N   1.0     0.550250     0.225566     0.306912  Biso 1.000000     N
    N   1.0     0.091674     0.292783     0.497465  Biso 1.000000     N
    N   1.0     0.590379     0.291421     0.500341  Biso 1.000000     N
    N   1.0     0.301050     0.775256     0.696910  Biso 1.000000     N
    N   1.0     0.801514     0.774577     0.697463  Biso 1.000000     N
    N   1.0     0.340960     0.710217     0.502777  Biso 1.000000     N
    N   1.0     0.841290     0.709207     0.503299  Biso 1.000000     N
    F   1.0     0.450391     0.670992     0.693100  Biso 1.000000     F
    F   1.0     0.950308     0.666448     0.689365  Biso 1.000000     F
    F   1.0     0.490084     0.707556     0.529513  Biso 1.000000     F
    F   1.0     0.990078     0.706183     0.528240  Biso 1.000000     F
    F   1.0     0.450143     0.546074     0.564086  Biso 1.000000     F
    F   1.0     0.950216     0.542344     0.559637  Biso 1.000000     F
    F   1.0     0.049841     0.684481     0.671409  Biso 1.000000     F
    F   1.0     0.549650     0.688972     0.675299  Biso 1.000000     F
    F   1.0     0.009963     0.520322     0.702555  Biso 1.000000     F
    F   1.0     0.509950     0.524731     0.707012  Biso 1.000000     F
    F   1.0     0.049606     0.560239     0.541806  Biso 1.000000     F
    F   1.0     0.549832     0.564025     0.546330  Biso 1.000000     F
    F   1.0     0.202580     0.328819     0.315232  Biso 1.000000     F
    F   1.0     0.697626     0.328784     0.315430  Biso 1.000000     F
    F   1.0     0.244931     0.297613     0.476069  Biso 1.000000     F
    F   1.0     0.739965     0.292972     0.475767  Biso 1.000000     F
    F   1.0     0.202653     0.457852     0.440203  Biso 1.000000     F
    F   1.0     0.697629     0.453625     0.444503  Biso 1.000000     F
    F   1.0     0.302408     0.315358     0.328755  Biso 1.000000     F
    F   1.0     0.797453     0.315155     0.328795  Biso 1.000000     F
    F   1.0     0.260033     0.475817     0.293034  Biso 1.000000     F
    F   1.0     0.755070     0.476134     0.297676  Biso 1.000000     F
    F   1.0     0.302370     0.444541     0.453551  Biso 1.000000     F
    F   1.0     0.797344     0.440240     0.457781  Biso 1.000000     F
    F   1.0     0.073015     0.813067     0.168714  Biso 1.000000     F
    F   1.0     0.575444     0.809324     0.168503  Biso 1.000000     F
    F   1.0     0.115008     0.973713     0.204023  Biso 1.000000     F
    F   1.0     0.612563     0.973770     0.204631  Biso 1.000000     F
    F   1.0     0.077555     0.938321     0.039847  Biso 1.000000     F
    F   1.0     0.575698     0.937419     0.040591  Biso 1.000000     F
    F   1.0     0.172477     0.826202     0.191336  Biso 1.000000     F
    F   1.0     0.674493     0.831535     0.190634  Biso 1.000000     F
    F   1.0     0.134959     0.791005     0.026943  Biso 1.000000     F
    F   1.0     0.637471     0.795367     0.026344  Biso 1.000000     F
    F   1.0     0.176761     0.951398     0.062282  Biso 1.000000     F
    F   1.0     0.674487     0.959527     0.062629  Biso 1.000000     F
    F   1.0     0.325515     0.190716     0.831577  Biso 1.000000     F
    F   1.0     0.827531     0.191411     0.826240  Biso 1.000000     F
    F   1.0     0.362564     0.026290     0.795408  Biso 1.000000     F
    F   1.0     0.865077     0.026888     0.791051  Biso 1.000000     F
    F   1.0     0.325517     0.062618     0.959477  Biso 1.000000     F
    F   1.0     0.823238     0.062272     0.951350  Biso 1.000000     F
    F   1.0     0.424572     0.168504     0.809334  Biso 1.000000     F
    F   1.0     0.927000     0.168715     0.813075  Biso 1.000000     F
    F   1.0     0.387430     0.204672     0.973684  Biso 1.000000     F
    F   1.0     0.884982     0.204080     0.973622  Biso 1.000000     F
    F   1.0     0.424316     0.040488     0.937348  Biso 1.000000     F
    F   1.0     0.922458     0.039766     0.938259  Biso 1.000000     F
    P   1.0    -0.000025     0.614222     0.616347  Biso 1.000000     P
    P   1.0     0.499989     0.617996     0.620120  Biso 1.000000     P
    P   1.0     0.252523     0.385809     0.383705  Biso 1.000000     P
    P   1.0     0.747489     0.383696     0.385820  Biso 1.000000     P
    P   1.0     0.124973     0.881454     0.116431  Biso 1.000000     P
    P   1.0     0.625019     0.883603     0.116492  Biso 1.000000     P
    P   1.0     0.374995     0.116492     0.883586  Biso 1.000000     P
    P   1.0     0.875038     0.116434     0.881440  Biso 1.000000     P
   Ag   1.0     0.000000     0.155769     0.156304  Biso 1.000000    Ag
   Ag   1.0     0.500207     0.156783     0.157042  Biso 1.000000    Ag
   Ag   1.0     0.250171     0.845720     0.845450  Biso 1.000000    Ag
   Ag   1.0     0.750228     0.845174     0.846074  Biso 1.000000    Ag
   Ag   1.0     0.124680     0.345565     0.655308  Biso 1.000000    Ag
   Ag   1.0     0.624948     0.345582     0.656651  Biso 1.000000    Ag
   Ag   1.0     0.374738     0.656667     0.345881  Biso 1.000000    Ag
   Ag   1.0     0.874956     0.655161     0.345981  Biso 1.000000    Ag
