#======================================================================

# CRYSTAL DATA

#----------------------------------------------------------------------

data_VESTA_phase_1


_pd_phase_name                         MOF
_cell_length_a                         12.95800
_cell_length_b                         18.00700
_cell_length_c                         18.84300
_cell_angle_alpha                      90.00200
_cell_angle_beta                       89.99900
_cell_angle_gamma                      111.34400
_symmetry_space_group_name_H-M         "P 1"
_symmetry_Int_Tables_number            1

loop_
_symmetry_equiv_pos_as_xyz
   "x, y, z"

loop_
   _atom_site_label
   _atom_site_occupancy
   _atom_site_fract_x
   _atom_site_fract_y
   _atom_site_fract_z
   _atom_site_adp_type
   _atom_site_B_iso_or_equiv
   _atom_site_type_symbol
    C   1.0     0.307371     0.500285     0.363473  Biso 1.000000     C
    C   1.0     0.307376     0.500286     0.863483  Biso 1.000000     C
    C   1.0     0.307367     0.000000     0.363448  Biso 1.000000     C
    C   1.0     0.307371     0.000000     0.863456  Biso 1.000000     C
    C   1.0     0.808346     0.500296     0.363438  Biso 1.000000     C
    C   1.0     0.808350     0.500297     0.863448  Biso 1.000000     C
    C   1.0     0.808339     0.000000     0.363408  Biso 1.000000     C
    C   1.0     0.808343     0.000000     0.863416  Biso 1.000000     C
    C   1.0     0.030458     0.295874     0.250001  Biso 1.000000     C
    C   1.0     0.030462     0.295875     0.750010  Biso 1.000000     C
    C   1.0     0.030467     0.795865     0.249999  Biso 1.000000     C
    C   1.0     0.030472     0.795866     0.750009  Biso 1.000000     C
    C   1.0     0.530338     0.295695     0.250001  Biso 1.000000     C
    C   1.0     0.530343     0.295696     0.750011  Biso 1.000000     C
    C   1.0     0.530346     0.795686     0.250000  Biso 1.000000     C
    C   1.0     0.530351     0.795687     0.750009  Biso 1.000000     C
    C   1.0     0.191622    -0.000283     0.113436  Biso 1.000000     C
    C   1.0     0.191627    -0.000282     0.613444  Biso 1.000000     C
    C   1.0     0.191620     0.499709     0.113457  Biso 1.000000     C
    C   1.0     0.191624     0.499711     0.613467  Biso 1.000000     C
    C   1.0     0.692596    -0.000273     0.113471  Biso 1.000000     C
    C   1.0     0.692601    -0.000271     0.613480  Biso 1.000000     C
    C   1.0     0.692596     0.499720     0.113486  Biso 1.000000     C
    C   1.0     0.692600     0.499721     0.613498  Biso 1.000000     C
    C   1.0     0.469626     0.204323    -0.000006  Biso 1.000000     C
    C   1.0     0.469631     0.204324     0.500004  Biso 1.000000     C
    C   1.0     0.469634     0.704314    -0.000007  Biso 1.000000     C
    C   1.0     0.469639     0.704315     0.500002  Biso 1.000000     C
    C   1.0     0.969494     0.204139    -0.000006  Biso 1.000000     C
    C   1.0     0.969498     0.204140     0.500003  Biso 1.000000     C
    C   1.0     0.969503     0.704130    -0.000008  Biso 1.000000     C
    C   1.0     0.969508     0.704131     0.500002  Biso 1.000000     C
    C   1.0     0.191625     0.499712     0.386569  Biso 1.000000     C
    C   1.0     0.191629     0.499713     0.886578  Biso 1.000000     C
    C   1.0     0.191642     0.999704     0.386594  Biso 1.000000     C
    C   1.0     0.191647     0.999705     0.886605  Biso 1.000000     C
    C   1.0     0.692602     0.499723     0.386541  Biso 1.000000     C
    C   1.0     0.692606     0.499724     0.886550  Biso 1.000000     C
    C   1.0     0.692621     0.999715     0.386572  Biso 1.000000     C
    C   1.0     0.692626     0.999716     0.886581  Biso 1.000000     C
    C   1.0     0.265637     0.295903     0.500005  Biso 1.000000     C
    C   1.0     0.265641     0.295904     0.000000  Biso 1.000000     C
    C   1.0     0.265645     0.795895     0.500004  Biso 1.000000     C
    C   1.0     0.265650     0.795896     0.000000  Biso 1.000000     C
    C   1.0     0.766092     0.295905     0.500004  Biso 1.000000     C
    C   1.0     0.766097     0.295906     0.000000  Biso 1.000000     C
    C   1.0     0.766099     0.795896     0.500003  Biso 1.000000     C
    C   1.0     0.766104     0.795897     0.000000  Biso 1.000000     C
    C   1.0     0.307366     0.000293     0.136535  Biso 1.000000     C
    C   1.0     0.307370     0.000294     0.636545  Biso 1.000000     C
    C   1.0     0.307382     0.500284     0.136513  Biso 1.000000     C
    C   1.0     0.307386     0.500286     0.636522  Biso 1.000000     C
    C   1.0     0.808344     0.000303     0.136562  Biso 1.000000     C
    C   1.0     0.808348     0.000304     0.636573  Biso 1.000000     C
    C   1.0     0.808357     0.500295     0.136547  Biso 1.000000     C
    C   1.0     0.808362     0.500296     0.636555  Biso 1.000000     C
    C   1.0     0.233879     0.204113     0.249999  Biso 1.000000     C
    C   1.0     0.233883     0.204114     0.750009  Biso 1.000000     C
    C   1.0     0.233886     0.704104     0.249998  Biso 1.000000     C
    C   1.0     0.233890     0.704105     0.750007  Biso 1.000000     C
    C   1.0     0.734314     0.204104     0.250000  Biso 1.000000     C
    C   1.0     0.734319     0.204105     0.750009  Biso 1.000000     C
    C   1.0     0.734323     0.704096     0.249998  Biso 1.000000     C
    C   1.0     0.734327     0.704097     0.750008  Biso 1.000000     C
    O   1.0     0.382842     0.068079     0.355065  Biso 1.000000     O
    O   1.0     0.382847     0.068080     0.855074  Biso 1.000000     O
    O   1.0     0.382846     0.568070     0.355056  Biso 1.000000     O
    O   1.0     0.382850     0.568071     0.855065  Biso 1.000000     O
    O   1.0     0.883804     0.068114     0.355050  Biso 1.000000     O
    O   1.0     0.883809     0.068115     0.855060  Biso 1.000000     O
    O   1.0     0.883807     0.568106     0.355039  Biso 1.000000     O
    O   1.0     0.883811     0.568107     0.855048  Biso 1.000000     O
    O   1.0     0.315686     0.432925     0.355137  Biso 1.000000     O
    O   1.0     0.315691     0.432926     0.855146  Biso 1.000000     O
    O   1.0     0.315697     0.932918     0.355144  Biso 1.000000     O
    O   1.0     0.315701     0.932919     0.855154  Biso 1.000000     O
    O   1.0     0.816573     0.432903     0.355100  Biso 1.000000     O
    O   1.0     0.816577     0.432904     0.855109  Biso 1.000000     O
    O   1.0     0.816584     0.932896     0.355110  Biso 1.000000     O
    O   1.0     0.816588     0.932897     0.855119  Biso 1.000000     O
    O   1.0     0.484568     0.270856     0.310879  Biso 1.000000     O
    O   1.0     0.484573     0.270857     0.810889  Biso 1.000000     O
    O   1.0     0.484575     0.770848     0.310878  Biso 1.000000     O
    O   1.0     0.484580     0.770849     0.810887  Biso 1.000000     O
    O   1.0     0.984640     0.270972     0.310864  Biso 1.000000     O
    O   1.0     0.984645     0.270973     0.810874  Biso 1.000000     O
    O   1.0     0.984648     0.770964     0.310862  Biso 1.000000     O
    O   1.0     0.984652     0.770965     0.810872  Biso 1.000000     O
    O   1.0     0.131837     0.346136     0.250003  Biso 1.000000     O
    O   1.0     0.131841     0.346137     0.750013  Biso 1.000000     O
    O   1.0     0.131845     0.846128     0.250002  Biso 1.000000     O
    O   1.0     0.131850     0.846130     0.750012  Biso 1.000000     O
    O   1.0     0.631788     0.345904     0.250003  Biso 1.000000     O
    O   1.0     0.631792     0.345905     0.750013  Biso 1.000000     O
    O   1.0     0.631795     0.845896     0.250002  Biso 1.000000     O
    O   1.0     0.631799     0.845897     0.750012  Biso 1.000000     O
    O   1.0     0.484571     0.270855     0.189122  Biso 1.000000     O
    O   1.0     0.484576     0.270856     0.689132  Biso 1.000000     O
    O   1.0     0.484579     0.770847     0.189121  Biso 1.000000     O
    O   1.0     0.484584     0.770849     0.689130  Biso 1.000000     O
    O   1.0     0.984647     0.270969     0.189135  Biso 1.000000     O
    O   1.0     0.984652     0.270970     0.689144  Biso 1.000000     O
    O   1.0     0.984657     0.770961     0.189133  Biso 1.000000     O
    O   1.0     0.984662     0.770962     0.689142  Biso 1.000000     O
    O   1.0     0.116171     0.431899     0.105029  Biso 1.000000     O
    O   1.0     0.116176     0.431900     0.605038  Biso 1.000000     O
    O   1.0     0.116175     0.931890     0.105036  Biso 1.000000     O
    O   1.0     0.116179     0.931891     0.605046  Biso 1.000000     O
    O   1.0     0.617130     0.431935     0.105049  Biso 1.000000     O
    O   1.0     0.617134     0.431936     0.605058  Biso 1.000000     O
    O   1.0     0.617135     0.931926     0.105053  Biso 1.000000     O
    O   1.0     0.617139     0.931927     0.605063  Biso 1.000000     O
    O   1.0     0.183395     0.067108     0.105094  Biso 1.000000     O
    O   1.0     0.183399     0.067109     0.605104  Biso 1.000000     O
    O   1.0     0.183405     0.567101     0.105087  Biso 1.000000     O
    O   1.0     0.183410     0.567102     0.605096  Biso 1.000000     O
    O   1.0     0.684281     0.067086     0.105130  Biso 1.000000     O
    O   1.0     0.684285     0.067088     0.605140  Biso 1.000000     O
    O   1.0     0.684291     0.567079     0.105125  Biso 1.000000     O
    O   1.0     0.684295     0.567080     0.605134  Biso 1.000000     O
    O   1.0     0.015312     0.229044     0.060857  Biso 1.000000     O
    O   1.0     0.015317     0.229045     0.560867  Biso 1.000000     O
    O   1.0     0.015322     0.729036     0.060855  Biso 1.000000     O
    O   1.0     0.015327     0.729037     0.560865  Biso 1.000000     O
    O   1.0     0.515399     0.229162     0.060872  Biso 1.000000     O
    O   1.0     0.515403     0.229164     0.560881  Biso 1.000000     O
    O   1.0     0.515407     0.729155     0.060870  Biso 1.000000     O
    O   1.0     0.515411     0.729156     0.560880  Biso 1.000000     O
    O   1.0     0.368177     0.154114    -0.000004  Biso 1.000000     O
    O   1.0     0.368182     0.154115     0.500005  Biso 1.000000     O
    O   1.0     0.368184     0.654106    -0.000005  Biso 1.000000     O
    O   1.0     0.368189     0.654108     0.500004  Biso 1.000000     O
    O   1.0     0.868118     0.153872    -0.000004  Biso 1.000000     O
    O   1.0     0.868123     0.153873     0.500005  Biso 1.000000     O
    O   1.0     0.868127     0.653865    -0.000005  Biso 1.000000     O
    O   1.0     0.868131     0.653866     0.500004  Biso 1.000000     O
    O   1.0     0.015307     0.229045     0.439137  Biso 1.000000     O
    O   1.0     0.015311     0.229046     0.939146  Biso 1.000000     O
    O   1.0     0.015314     0.729037     0.439135  Biso 1.000000     O
    O   1.0     0.015319     0.729038     0.939145  Biso 1.000000     O
    O   1.0     0.515398     0.229161     0.439124  Biso 1.000000     O
    O   1.0     0.515402     0.229162     0.939134  Biso 1.000000     O
    O   1.0     0.515404     0.729153     0.439123  Biso 1.000000     O
    O   1.0     0.515409     0.729154     0.939132  Biso 1.000000     O
    O   1.0     0.183389     0.067112     0.394903  Biso 1.000000     O
    O   1.0     0.183393     0.067113     0.894912  Biso 1.000000     O
    O   1.0     0.183400     0.567104     0.394911  Biso 1.000000     O
    O   1.0     0.183404     0.567105     0.894921  Biso 1.000000     O
    O   1.0     0.684274     0.067090     0.394864  Biso 1.000000     O
    O   1.0     0.684278     0.067091     0.894873  Biso 1.000000     O
    O   1.0     0.684285     0.567083     0.394874  Biso 1.000000     O
    O   1.0     0.684290     0.567084     0.894883  Biso 1.000000     O
    O   1.0     0.116167     0.431901     0.394973  Biso 1.000000     O
    O   1.0     0.116172     0.431903     0.894983  Biso 1.000000     O
    O   1.0     0.116170     0.931893     0.394964  Biso 1.000000     O
    O   1.0     0.116175     0.931894     0.894973  Biso 1.000000     O
    O   1.0     0.617125     0.431938     0.394953  Biso 1.000000     O
    O   1.0     0.617129     0.431939     0.894963  Biso 1.000000     O
    O   1.0     0.617127     0.931930     0.394943  Biso 1.000000     O
    O   1.0     0.617132     0.931931     0.894952  Biso 1.000000     O
    O   1.0     0.286227     0.271001     0.439131  Biso 1.000000     O
    O   1.0     0.286232     0.271002     0.939141  Biso 1.000000     O
    O   1.0     0.286236     0.770994     0.439130  Biso 1.000000     O
    O   1.0     0.286241     0.770995     0.939139  Biso 1.000000     O
    O   1.0     0.786687     0.271006     0.439122  Biso 1.000000     O
    O   1.0     0.786692     0.271007     0.939131  Biso 1.000000     O
    O   1.0     0.786695     0.770998     0.439120  Biso 1.000000     O
    O   1.0     0.786699     0.770999     0.939129  Biso 1.000000     O
    O   1.0     0.215077     0.346151     0.500007  Biso 1.000000     O
    O   1.0     0.215082     0.346152     0.000000  Biso 1.000000     O
    O   1.0     0.215087     0.846144     0.500006  Biso 1.000000     O
    O   1.0     0.215091     0.846145     0.000000  Biso 1.000000     O
    O   1.0     0.715567     0.346172     0.500007  Biso 1.000000     O
    O   1.0     0.715572     0.346173     0.000000  Biso 1.000000     O
    O   1.0     0.715575     0.846164     0.500007  Biso 1.000000     O
    O   1.0     0.715580     0.846165     0.000000  Biso 1.000000     O
    O   1.0     0.286226     0.270999     0.060866  Biso 1.000000     O
    O   1.0     0.286230     0.271000     0.560875  Biso 1.000000     O
    O   1.0     0.286237     0.770993     0.060864  Biso 1.000000     O
    O   1.0     0.286242     0.770994     0.560874  Biso 1.000000     O
    O   1.0     0.786683     0.271000     0.060873  Biso 1.000000     O
    O   1.0     0.786688     0.271001     0.560882  Biso 1.000000     O
    O   1.0     0.786692     0.770992     0.060871  Biso 1.000000     O
    O   1.0     0.786696     0.770993     0.560880  Biso 1.000000     O
    O   1.0     0.315685     0.432925     0.144878  Biso 1.000000     O
    O   1.0     0.315690     0.432926     0.644888  Biso 1.000000     O
    O   1.0     0.315696     0.932918     0.144870  Biso 1.000000     O
    O   1.0     0.315700     0.932919     0.644880  Biso 1.000000     O
    O   1.0     0.816572     0.432903     0.144914  Biso 1.000000     O
    O   1.0     0.816576     0.432905     0.644924  Biso 1.000000     O
    O   1.0     0.816582     0.932896     0.144909  Biso 1.000000     O
    O   1.0     0.816587     0.932897     0.644918  Biso 1.000000     O
    O   1.0     0.382842     0.068079     0.144948  Biso 1.000000     O
    O   1.0     0.382846     0.068080     0.644957  Biso 1.000000     O
    O   1.0     0.382846     0.568070     0.144954  Biso 1.000000     O
    O   1.0     0.382850     0.568071     0.644964  Biso 1.000000     O
    O   1.0     0.883802     0.068114     0.144968  Biso 1.000000     O
    O   1.0     0.883806     0.068116     0.644977  Biso 1.000000     O
    O   1.0     0.883806     0.568106     0.144973  Biso 1.000000     O
    O   1.0     0.883810     0.568107     0.644983  Biso 1.000000     O
    O   1.0     0.213286     0.229012     0.189119  Biso 1.000000     O
    O   1.0     0.213290     0.229014     0.689129  Biso 1.000000     O
    O   1.0     0.213294     0.729004     0.189117  Biso 1.000000     O
    O   1.0     0.213299     0.729005     0.689127  Biso 1.000000     O
    O   1.0     0.713727     0.229007     0.189127  Biso 1.000000     O
    O   1.0     0.713731     0.229008     0.689137  Biso 1.000000     O
    O   1.0     0.713739     0.729000     0.189126  Biso 1.000000     O
    O   1.0     0.713743     0.729001     0.689135  Biso 1.000000     O
    O   1.0     0.284404     0.153846     0.250001  Biso 1.000000     O
    O   1.0     0.284409     0.153847     0.750011  Biso 1.000000     O
    O   1.0     0.284412     0.653838     0.250001  Biso 1.000000     O
    O   1.0     0.284417     0.653839     0.750010  Biso 1.000000     O
    O   1.0     0.784876     0.153858     0.250001  Biso 1.000000     O
    O   1.0     0.784880     0.153859     0.750010  Biso 1.000000     O
    O   1.0     0.784886     0.653851     0.250000  Biso 1.000000     O
    O   1.0     0.784890     0.653852     0.750010  Biso 1.000000     O
    O   1.0     0.213280     0.229015     0.310879  Biso 1.000000     O
    O   1.0     0.213285     0.229016     0.810888  Biso 1.000000     O
    O   1.0     0.213288     0.729008     0.310877  Biso 1.000000     O
    O   1.0     0.213292     0.729009     0.810886  Biso 1.000000     O
    O   1.0     0.713711     0.229002     0.310872  Biso 1.000000     O
    O   1.0     0.713715     0.229003     0.810881  Biso 1.000000     O
    O   1.0     0.713719     0.728995     0.310870  Biso 1.000000     O
    O   1.0     0.713724     0.728996     0.810879  Biso 1.000000     O
    Y   1.0     0.337894     0.177096     0.375037  Biso 1.000000     Y
    Y   1.0     0.337899     0.177097     0.875046  Biso 1.000000     Y
    Y   1.0     0.337902     0.677088     0.375036  Biso 1.000000     Y
    Y   1.0     0.337906     0.677089     0.875045  Biso 1.000000     Y
    Y   1.0     0.838295     0.177043     0.374999  Biso 1.000000     Y
    Y   1.0     0.838300     0.177044     0.875008  Biso 1.000000     Y
    Y   1.0     0.838303     0.677036     0.374997  Biso 1.000000     Y
    Y   1.0     0.838307     0.677037     0.875007  Biso 1.000000     Y
    Y   1.0     0.161660     0.322970     0.375006  Biso 1.000000     Y
    Y   1.0     0.161665     0.322971     0.875015  Biso 1.000000     Y
    Y   1.0     0.161668     0.822963     0.375005  Biso 1.000000     Y
    Y   1.0     0.161672     0.822964     0.875014  Biso 1.000000     Y
    Y   1.0     0.662069     0.322920     0.374968  Biso 1.000000     Y
    Y   1.0     0.662074     0.322921     0.874977  Biso 1.000000     Y
    Y   1.0     0.662077     0.822912     0.374967  Biso 1.000000     Y
    Y   1.0     0.662081     0.822913     0.874976  Biso 1.000000     Y
    Y   1.0     0.161663     0.322969     0.124997  Biso 1.000000     Y
    Y   1.0     0.161668     0.322970     0.625007  Biso 1.000000     Y
    Y   1.0     0.161673     0.822961     0.124996  Biso 1.000000     Y
    Y   1.0     0.161677     0.822962     0.625005  Biso 1.000000     Y
    Y   1.0     0.662072     0.322918     0.125035  Biso 1.000000     Y
    Y   1.0     0.662077     0.322920     0.625045  Biso 1.000000     Y
    Y   1.0     0.662081     0.822910     0.125034  Biso 1.000000     Y
    Y   1.0     0.662085     0.822912     0.625044  Biso 1.000000     Y
    Y   1.0     0.337897     0.177095     0.124961  Biso 1.000000     Y
    Y   1.0     0.337901     0.177096     0.624971  Biso 1.000000     Y
    Y   1.0     0.337905     0.677087     0.124960  Biso 1.000000     Y
    Y   1.0     0.337910     0.677088     0.624969  Biso 1.000000     Y
    Y   1.0     0.838299     0.177042     0.124999  Biso 1.000000     Y
    Y   1.0     0.838304     0.177043     0.625009  Biso 1.000000     Y
    Y   1.0     0.838308     0.677034     0.124998  Biso 1.000000     Y
    Y   1.0     0.838313     0.677036     0.625007  Biso 1.000000     Y
