#======================================================================

# CRYSTAL DATA

#----------------------------------------------------------------------

data_VESTA_phase_1


_pd_phase_name                         MOF
_cell_length_a                         12.95600
_cell_length_b                         18.01400
_cell_length_c                         18.84300
_cell_angle_alpha                      90.00000
_cell_angle_beta                       89.99900
_cell_angle_gamma                      111.39300
_symmetry_space_group_name_H-M         "P 1"
_symmetry_Int_Tables_number            1

loop_
_symmetry_equiv_pos_as_xyz
   "x, y, z"

loop_
   _atom_site_label
   _atom_site_occupancy
   _atom_site_fract_x
   _atom_site_fract_y
   _atom_site_fract_z
   _atom_site_adp_type
   _atom_site_B_iso_or_equiv
   _atom_site_type_symbol
    C   1.0     0.307331     0.500214     0.363477  Biso 1.000000     C
    C   1.0     0.307325     0.500213     0.863487  Biso 1.000000     C
    C   1.0     0.307318     0.000000     0.363480  Biso 1.000000     C
    C   1.0     0.307311     0.000000     0.863490  Biso 1.000000     C
    C   1.0     0.808384     0.500190     0.363444  Biso 1.000000     C
    C   1.0     0.808377     0.500189     0.863453  Biso 1.000000     C
    C   1.0     0.808385     0.000000     0.363447  Biso 1.000000     C
    C   1.0     0.808379     0.000000     0.863457  Biso 1.000000     C
    C   1.0     0.030418     0.295701     0.250005  Biso 1.000000     C
    C   1.0     0.030412     0.295701     0.750015  Biso 1.000000     C
    C   1.0     0.030352     0.795702     0.250005  Biso 1.000000     C
    C   1.0     0.030346     0.795701     0.750015  Biso 1.000000     C
    C   1.0     0.530363     0.295499     0.250005  Biso 1.000000     C
    C   1.0     0.530356     0.295499     0.750014  Biso 1.000000     C
    C   1.0     0.530341     0.795525     0.250005  Biso 1.000000     C
    C   1.0     0.530335     0.795525     0.750014  Biso 1.000000     C
    C   1.0     0.191494    -0.000507     0.113437  Biso 1.000000     C
    C   1.0     0.191488    -0.000507     0.613447  Biso 1.000000     C
    C   1.0     0.191496     0.499506     0.113434  Biso 1.000000     C
    C   1.0     0.191489     0.499506     0.613445  Biso 1.000000     C
    C   1.0     0.692565    -0.000528     0.113462  Biso 1.000000     C
    C   1.0     0.692558    -0.000529     0.613472  Biso 1.000000     C
    C   1.0     0.692553     0.499467     0.113456  Biso 1.000000     C
    C   1.0     0.692546     0.499466     0.613467  Biso 1.000000     C
    C   1.0     0.469553     0.204155     0.500009  Biso 1.000000     C
    C   1.0     0.469547     0.204153     0.000000  Biso 1.000000     C
    C   1.0     0.469531     0.704179     0.500009  Biso 1.000000     C
    C   1.0     0.469525     0.704177     0.000000  Biso 1.000000     C
    C   1.0     0.969421     0.203982     0.500009  Biso 1.000000     C
    C   1.0     0.969414     0.203981     0.000000  Biso 1.000000     C
    C   1.0     0.969358     0.703983     0.500009  Biso 1.000000     C
    C   1.0     0.969351     0.703982     0.000000  Biso 1.000000     C
    C   1.0     0.191493     0.499506     0.386576  Biso 1.000000     C
    C   1.0     0.191486     0.499505     0.886584  Biso 1.000000     C
    C   1.0     0.191484     0.999512     0.386573  Biso 1.000000     C
    C   1.0     0.191477     0.999511     0.886582  Biso 1.000000     C
    C   1.0     0.692547     0.499466     0.386551  Biso 1.000000     C
    C   1.0     0.692541     0.499465     0.886561  Biso 1.000000     C
    C   1.0     0.692552     0.999491     0.386547  Biso 1.000000     C
    C   1.0     0.692545     0.999490     0.886556  Biso 1.000000     C
    C   1.0     0.265719     0.295792    -0.000001  Biso 1.000000     C
    C   1.0     0.265713     0.295791     0.500009  Biso 1.000000     C
    C   1.0     0.265649     0.795787    -0.000000  Biso 1.000000     C
    C   1.0     0.265643     0.795786     0.500009  Biso 1.000000     C
    C   1.0     0.766159     0.295727    -0.000001  Biso 1.000000     C
    C   1.0     0.766153     0.295726     0.500008  Biso 1.000000     C
    C   1.0     0.766135     0.795742    -0.000001  Biso 1.000000     C
    C   1.0     0.766129     0.795741     0.500008  Biso 1.000000     C
    C   1.0     0.307328     0.000188     0.136529  Biso 1.000000     C
    C   1.0     0.307322     0.000188     0.636537  Biso 1.000000     C
    C   1.0     0.307332     0.500214     0.136533  Biso 1.000000     C
    C   1.0     0.307327     0.500214     0.636540  Biso 1.000000     C
    C   1.0     0.808397     0.000182     0.136563  Biso 1.000000     C
    C   1.0     0.808391     0.000182     0.636571  Biso 1.000000     C
    C   1.0     0.808387     0.500190     0.136567  Biso 1.000000     C
    C   1.0     0.808381     0.500190     0.636576  Biso 1.000000     C
    C   1.0     0.233771     0.203963     0.250006  Biso 1.000000     C
    C   1.0     0.233764     0.203963     0.750015  Biso 1.000000     C
    C   1.0     0.233747     0.703977     0.250006  Biso 1.000000     C
    C   1.0     0.233740     0.703977     0.750015  Biso 1.000000     C
    C   1.0     0.734112     0.203867     0.250005  Biso 1.000000     C
    C   1.0     0.734106     0.203867     0.750014  Biso 1.000000     C
    C   1.0     0.734037     0.703861     0.250005  Biso 1.000000     C
    C   1.0     0.734031     0.703861     0.750014  Biso 1.000000     C
    O   1.0     0.382794     0.068016     0.355060  Biso 1.000000     O
    O   1.0     0.382788     0.068015     0.855069  Biso 1.000000     O
    O   1.0     0.382790     0.568046     0.355059  Biso 1.000000     O
    O   1.0     0.382784     0.568045     0.855068  Biso 1.000000     O
    O   1.0     0.883820     0.068046     0.355035  Biso 1.000000     O
    O   1.0     0.883813     0.068045     0.855044  Biso 1.000000     O
    O   1.0     0.883800     0.568059     0.355033  Biso 1.000000     O
    O   1.0     0.883794     0.568058     0.855042  Biso 1.000000     O
    O   1.0     0.315711     0.432904     0.355147  Biso 1.000000     O
    O   1.0     0.315705     0.432903     0.855157  Biso 1.000000     O
    O   1.0     0.315682     0.932893     0.355148  Biso 1.000000     O
    O   1.0     0.315675     0.932892     0.855157  Biso 1.000000     O
    O   1.0     0.816692     0.432853     0.355113  Biso 1.000000     O
    O   1.0     0.816685     0.432852     0.855123  Biso 1.000000     O
    O   1.0     0.816679     0.932861     0.355113  Biso 1.000000     O
    O   1.0     0.816673     0.932860     0.855123  Biso 1.000000     O
    O   1.0     0.484557     0.270663     0.310882  Biso 1.000000     O
    O   1.0     0.484550     0.270663     0.810892  Biso 1.000000     O
    O   1.0     0.484535     0.770690     0.310883  Biso 1.000000     O
    O   1.0     0.484529     0.770690     0.810892  Biso 1.000000     O
    O   1.0     0.984580     0.270793     0.310868  Biso 1.000000     O
    O   1.0     0.984574     0.270792     0.810878  Biso 1.000000     O
    O   1.0     0.984511     0.770796     0.310868  Biso 1.000000     O
    O   1.0     0.984505     0.770796     0.810877  Biso 1.000000     O
    O   1.0     0.131861     0.345989     0.250005  Biso 1.000000     O
    O   1.0     0.131855     0.345989     0.750014  Biso 1.000000     O
    O   1.0     0.131799     0.845983     0.250005  Biso 1.000000     O
    O   1.0     0.131793     0.845982     0.750014  Biso 1.000000     O
    O   1.0     0.631896     0.345705     0.250004  Biso 1.000000     O
    O   1.0     0.631890     0.345704     0.750014  Biso 1.000000     O
    O   1.0     0.631876     0.845729     0.250004  Biso 1.000000     O
    O   1.0     0.631870     0.845728     0.750014  Biso 1.000000     O
    O   1.0     0.484561     0.270662     0.189128  Biso 1.000000     O
    O   1.0     0.484554     0.270662     0.689137  Biso 1.000000     O
    O   1.0     0.484539     0.770689     0.189127  Biso 1.000000     O
    O   1.0     0.484533     0.770689     0.689137  Biso 1.000000     O
    O   1.0     0.984585     0.270791     0.189142  Biso 1.000000     O
    O   1.0     0.984578     0.270791     0.689151  Biso 1.000000     O
    O   1.0     0.984516     0.770795     0.189143  Biso 1.000000     O
    O   1.0     0.984509     0.770794     0.689152  Biso 1.000000     O
    O   1.0     0.116058     0.431646     0.105025  Biso 1.000000     O
    O   1.0     0.116052     0.431646     0.605034  Biso 1.000000     O
    O   1.0     0.116040     0.931657     0.105026  Biso 1.000000     O
    O   1.0     0.116034     0.931657     0.605035  Biso 1.000000     O
    O   1.0     0.617109     0.431629     0.105037  Biso 1.000000     O
    O   1.0     0.617103     0.431629     0.605047  Biso 1.000000     O
    O   1.0     0.617105     0.931659     0.105039  Biso 1.000000     O
    O   1.0     0.617098     0.931658     0.605049  Biso 1.000000     O
    O   1.0     0.183211     0.066836     0.105105  Biso 1.000000     O
    O   1.0     0.183204     0.066836     0.605114  Biso 1.000000     O
    O   1.0     0.183198     0.566845     0.105105  Biso 1.000000     O
    O   1.0     0.183192     0.566845     0.605115  Biso 1.000000     O
    O   1.0     0.684180     0.066777     0.105128  Biso 1.000000     O
    O   1.0     0.684173     0.066776     0.605137  Biso 1.000000     O
    O   1.0     0.684151     0.566766     0.105126  Biso 1.000000     O
    O   1.0     0.684144     0.566766     0.605136  Biso 1.000000     O
    O   1.0     0.015262     0.228887     0.060864  Biso 1.000000     O
    O   1.0     0.015256     0.228887     0.560874  Biso 1.000000     O
    O   1.0     0.015196     0.728890     0.060865  Biso 1.000000     O
    O   1.0     0.015190     0.728890     0.560874  Biso 1.000000     O
    O   1.0     0.515360     0.228988     0.060879  Biso 1.000000     O
    O   1.0     0.515354     0.228988     0.560889  Biso 1.000000     O
    O   1.0     0.515338     0.729014     0.060879  Biso 1.000000     O
    O   1.0     0.515332     0.729013     0.560888  Biso 1.000000     O
    O   1.0     0.368018     0.153951     0.500010  Biso 1.000000     O
    O   1.0     0.368011     0.153950     0.000000  Biso 1.000000     O
    O   1.0     0.367997     0.653974     0.500010  Biso 1.000000     O
    O   1.0     0.367991     0.653972     0.000000  Biso 1.000000     O
    O   1.0     0.867974     0.153702     0.500010  Biso 1.000000     O
    O   1.0     0.867967     0.153700     0.000000  Biso 1.000000     O
    O   1.0     0.867913     0.653698     0.500010  Biso 1.000000     O
    O   1.0     0.867906     0.653696     0.000000  Biso 1.000000     O
    O   1.0     0.015260     0.228885     0.439144  Biso 1.000000     O
    O   1.0     0.015253     0.228884     0.939153  Biso 1.000000     O
    O   1.0     0.015194     0.728888     0.439143  Biso 1.000000     O
    O   1.0     0.015187     0.728887     0.939153  Biso 1.000000     O
    O   1.0     0.515357     0.228986     0.439129  Biso 1.000000     O
    O   1.0     0.515351     0.228985     0.939138  Biso 1.000000     O
    O   1.0     0.515335     0.729012     0.439129  Biso 1.000000     O
    O   1.0     0.515329     0.729010     0.939139  Biso 1.000000     O
    O   1.0     0.183207     0.066835     0.394906  Biso 1.000000     O
    O   1.0     0.183201     0.066834     0.894915  Biso 1.000000     O
    O   1.0     0.183195     0.566845     0.394905  Biso 1.000000     O
    O   1.0     0.183188     0.566844     0.894914  Biso 1.000000     O
    O   1.0     0.684175     0.066776     0.394882  Biso 1.000000     O
    O   1.0     0.684168     0.066775     0.894891  Biso 1.000000     O
    O   1.0     0.684146     0.566765     0.394884  Biso 1.000000     O
    O   1.0     0.684139     0.566764     0.894893  Biso 1.000000     O
    O   1.0     0.116055     0.431646     0.394985  Biso 1.000000     O
    O   1.0     0.116048     0.431645     0.894994  Biso 1.000000     O
    O   1.0     0.116036     0.931657     0.394984  Biso 1.000000     O
    O   1.0     0.116030     0.931656     0.894993  Biso 1.000000     O
    O   1.0     0.617104     0.431629     0.394972  Biso 1.000000     O
    O   1.0     0.617097     0.431628     0.894981  Biso 1.000000     O
    O   1.0     0.617099     0.931658     0.394970  Biso 1.000000     O
    O   1.0     0.617093     0.931657     0.894980  Biso 1.000000     O
    O   1.0     0.286241     0.270868     0.439136  Biso 1.000000     O
    O   1.0     0.286235     0.270867     0.939146  Biso 1.000000     O
    O   1.0     0.286172     0.770863     0.439137  Biso 1.000000     O
    O   1.0     0.286165     0.770862     0.939146  Biso 1.000000     O
    O   1.0     0.786694     0.270809     0.439128  Biso 1.000000     O
    O   1.0     0.786688     0.270808     0.939138  Biso 1.000000     O
    O   1.0     0.786666     0.770821     0.439128  Biso 1.000000     O
    O   1.0     0.786659     0.770820     0.939137  Biso 1.000000     O
    O   1.0     0.215249     0.346057    -0.000000  Biso 1.000000     O
    O   1.0     0.215243     0.346056     0.500009  Biso 1.000000     O
    O   1.0     0.215178     0.846051    -0.000000  Biso 1.000000     O
    O   1.0     0.215172     0.846050     0.500009  Biso 1.000000     O
    O   1.0     0.715686     0.345986    -0.000000  Biso 1.000000     O
    O   1.0     0.715680     0.345986     0.500009  Biso 1.000000     O
    O   1.0     0.715670     0.846006    -0.000000  Biso 1.000000     O
    O   1.0     0.715664     0.846005     0.500009  Biso 1.000000     O
    O   1.0     0.286240     0.270866     0.060873  Biso 1.000000     O
    O   1.0     0.286234     0.270866     0.560882  Biso 1.000000     O
    O   1.0     0.286171     0.770861     0.060872  Biso 1.000000     O
    O   1.0     0.286165     0.770861     0.560882  Biso 1.000000     O
    O   1.0     0.786697     0.270809     0.060879  Biso 1.000000     O
    O   1.0     0.786691     0.270808     0.560888  Biso 1.000000     O
    O   1.0     0.786669     0.770821     0.060879  Biso 1.000000     O
    O   1.0     0.786663     0.770820     0.560888  Biso 1.000000     O
    O   1.0     0.315713     0.432904     0.144862  Biso 1.000000     O
    O   1.0     0.315707     0.432904     0.644871  Biso 1.000000     O
    O   1.0     0.315684     0.932893     0.144861  Biso 1.000000     O
    O   1.0     0.315677     0.932893     0.644870  Biso 1.000000     O
    O   1.0     0.816695     0.432853     0.144896  Biso 1.000000     O
    O   1.0     0.816689     0.432853     0.644905  Biso 1.000000     O
    O   1.0     0.816682     0.932862     0.144896  Biso 1.000000     O
    O   1.0     0.816676     0.932861     0.644905  Biso 1.000000     O
    O   1.0     0.382796     0.068016     0.144949  Biso 1.000000     O
    O   1.0     0.382789     0.068015     0.644959  Biso 1.000000     O
    O   1.0     0.382792     0.568046     0.144951  Biso 1.000000     O
    O   1.0     0.382785     0.568045     0.644960  Biso 1.000000     O
    O   1.0     0.883823     0.068047     0.144975  Biso 1.000000     O
    O   1.0     0.883817     0.068046     0.644984  Biso 1.000000     O
    O   1.0     0.883804     0.568059     0.144977  Biso 1.000000     O
    O   1.0     0.883797     0.568059     0.644986  Biso 1.000000     O
    O   1.0     0.213232     0.228879     0.189124  Biso 1.000000     O
    O   1.0     0.213226     0.228878     0.689133  Biso 1.000000     O
    O   1.0     0.213204     0.728890     0.189124  Biso 1.000000     O
    O   1.0     0.213198     0.728890     0.689133  Biso 1.000000     O
    O   1.0     0.713581     0.228786     0.189131  Biso 1.000000     O
    O   1.0     0.713574     0.228785     0.689140  Biso 1.000000     O
    O   1.0     0.713506     0.728780     0.189130  Biso 1.000000     O
    O   1.0     0.713499     0.728779     0.689140  Biso 1.000000     O
    O   1.0     0.284245     0.153701     0.250005  Biso 1.000000     O
    O   1.0     0.284238     0.153700     0.750014  Biso 1.000000     O
    O   1.0     0.284229     0.653721     0.250005  Biso 1.000000     O
    O   1.0     0.284223     0.653720     0.750014  Biso 1.000000     O
    O   1.0     0.784599     0.153614     0.250005  Biso 1.000000     O
    O   1.0     0.784592     0.153614     0.750014  Biso 1.000000     O
    O   1.0     0.784523     0.653608     0.250005  Biso 1.000000     O
    O   1.0     0.784516     0.653607     0.750014  Biso 1.000000     O
    O   1.0     0.213229     0.228877     0.310888  Biso 1.000000     O
    O   1.0     0.213222     0.228876     0.810897  Biso 1.000000     O
    O   1.0     0.213201     0.728889     0.310887  Biso 1.000000     O
    O   1.0     0.213194     0.728888     0.810897  Biso 1.000000     O
    O   1.0     0.713573     0.228783     0.310879  Biso 1.000000     O
    O   1.0     0.713566     0.228782     0.810888  Biso 1.000000     O
    O   1.0     0.713498     0.728777     0.310879  Biso 1.000000     O
    O   1.0     0.713491     0.728776     0.810889  Biso 1.000000     O
    Y   1.0     0.337751     0.176927     0.375050  Biso 1.000000     Y
    Y   1.0     0.337744     0.176926     0.875059  Biso 1.000000     Y
    Y   1.0     0.337727     0.676946     0.375049  Biso 1.000000     Y
    Y   1.0     0.337721     0.676945     0.875058  Biso 1.000000     Y
    Y   1.0     0.838160     0.176843     0.375001  Biso 1.000000     Y
    Y   1.0     0.838153     0.176842     0.875010  Biso 1.000000     Y
    Y   1.0     0.838103     0.676843     0.374999  Biso 1.000000     Y
    Y   1.0     0.838097     0.676842     0.875009  Biso 1.000000     Y
    Y   1.0     0.161702     0.322839     0.375012  Biso 1.000000     Y
    Y   1.0     0.161695     0.322838     0.875021  Biso 1.000000     Y
    Y   1.0     0.161646     0.822838     0.375010  Biso 1.000000     Y
    Y   1.0     0.161640     0.822837     0.875020  Biso 1.000000     Y
    Y   1.0     0.662157     0.322745     0.374967  Biso 1.000000     Y
    Y   1.0     0.662151     0.322744     0.874977  Biso 1.000000     Y
    Y   1.0     0.662133     0.822764     0.374967  Biso 1.000000     Y
    Y   1.0     0.662126     0.822763     0.874976  Biso 1.000000     Y
    Y   1.0     0.161704     0.322839     0.124997  Biso 1.000000     Y
    Y   1.0     0.161698     0.322838     0.625007  Biso 1.000000     Y
    Y   1.0     0.161649     0.822838     0.124999  Biso 1.000000     Y
    Y   1.0     0.161643     0.822838     0.625008  Biso 1.000000     Y
    Y   1.0     0.662161     0.322746     0.125041  Biso 1.000000     Y
    Y   1.0     0.662155     0.322745     0.625050  Biso 1.000000     Y
    Y   1.0     0.662137     0.822764     0.125042  Biso 1.000000     Y
    Y   1.0     0.662131     0.822764     0.625051  Biso 1.000000     Y
    Y   1.0     0.337753     0.176927     0.124960  Biso 1.000000     Y
    Y   1.0     0.337747     0.176927     0.624970  Biso 1.000000     Y
    Y   1.0     0.337730     0.676947     0.124961  Biso 1.000000     Y
    Y   1.0     0.337724     0.676946     0.624970  Biso 1.000000     Y
    Y   1.0     0.838164     0.176844     0.125009  Biso 1.000000     Y
    Y   1.0     0.838158     0.176844     0.625018  Biso 1.000000     Y
    Y   1.0     0.838107     0.676844     0.125010  Biso 1.000000     Y
    Y   1.0     0.838101     0.676844     0.625020  Biso 1.000000     Y
