#======================================================================

# CRYSTAL DATA

#----------------------------------------------------------------------

data_VESTA_phase_1


_pd_phase_name                         MOF
_cell_length_a                         12.95900
_cell_length_b                         17.97500
_cell_length_c                         18.84300
_cell_angle_alpha                      89.99900
_cell_angle_beta                       90.00000
_cell_angle_gamma                      111.08700
_symmetry_space_group_name_H-M         "P 1"
_symmetry_Int_Tables_number            1

loop_
_symmetry_equiv_pos_as_xyz
   "x, y, z"

loop_
   _atom_site_label
   _atom_site_occupancy
   _atom_site_fract_x
   _atom_site_fract_y
   _atom_site_fract_z
   _atom_site_adp_type
   _atom_site_B_iso_or_equiv
   _atom_site_type_symbol
    C   1.0     0.307501     0.499439     0.363455  Biso 1.000000     C
    C   1.0     0.307497     0.499442     0.863438  Biso 1.000000     C
    C   1.0     0.307509     0.999448     0.363454  Biso 1.000000     C
    C   1.0     0.307503     0.999450     0.863430  Biso 1.000000     C
    C   1.0     0.807837     0.500505     0.363421  Biso 1.000000     C
    C   1.0     0.807833     0.500508     0.863405  Biso 1.000000     C
    C   1.0     0.807822     0.000000     0.363420  Biso 1.000000     C
    C   1.0     0.807821     0.000000     0.863410  Biso 1.000000     C
    C   1.0     0.030382     0.295882     0.249994  Biso 1.000000     C
    C   1.0     0.030382     0.295887     0.749982  Biso 1.000000     C
    C   1.0     0.030435     0.795885     0.249994  Biso 1.000000     C
    C   1.0     0.030434     0.795890     0.749982  Biso 1.000000     C
    C   1.0     0.529920     0.295953     0.249995  Biso 1.000000     C
    C   1.0     0.529919     0.295956     0.749983  Biso 1.000000     C
    C   1.0     0.529924     0.795926     0.249994  Biso 1.000000     C
    C   1.0     0.529923     0.795930     0.749983  Biso 1.000000     C
    C   1.0     0.192114    -0.000448     0.113426  Biso 1.000000     C
    C   1.0     0.192114    -0.000445     0.613413  Biso 1.000000     C
    C   1.0     0.192100     0.499535     0.113424  Biso 1.000000     C
    C   1.0     0.192099     0.499538     0.613414  Biso 1.000000     C
    C   1.0     0.692422     0.000596     0.113457  Biso 1.000000     C
    C   1.0     0.692422     0.000599     0.613443  Biso 1.000000     C
    C   1.0     0.692432     0.500605     0.113454  Biso 1.000000     C
    C   1.0     0.692431     0.500608     0.613441  Biso 1.000000     C
    C   1.0     0.470005     0.204116     0.499989  Biso 1.000000     C
    C   1.0     0.470006     0.204116     0.999977  Biso 1.000000     C
    C   1.0     0.470010     0.704089     0.499989  Biso 1.000000     C
    C   1.0     0.470009     0.704088     0.999977  Biso 1.000000     C
    C   1.0     0.969494     0.204158     0.499990  Biso 1.000000     C
    C   1.0     0.969494     0.204158     0.999977  Biso 1.000000     C
    C   1.0     0.969547     0.704161     0.499990  Biso 1.000000     C
    C   1.0     0.969546     0.704161     0.999977  Biso 1.000000     C
    C   1.0     0.192096     0.499534     0.386567  Biso 1.000000     C
    C   1.0     0.192093     0.499537     0.886550  Biso 1.000000     C
    C   1.0     0.192099     0.999532     0.386565  Biso 1.000000     C
    C   1.0     0.192094     0.999535     0.886542  Biso 1.000000     C
    C   1.0     0.692436     0.500604     0.386536  Biso 1.000000     C
    C   1.0     0.692432     0.500608     0.886520  Biso 1.000000     C
    C   1.0     0.692416     0.000000     0.386535  Biso 1.000000     C
    C   1.0     0.692415     0.000000     0.886525  Biso 1.000000     C
    C   1.0     0.265205     0.295130    -0.000000  Biso 1.000000     C
    C   1.0     0.265205     0.295130     0.499988  Biso 1.000000     C
    C   1.0     0.265253     0.795131     0.000000  Biso 1.000000     C
    C   1.0     0.265251     0.795131     0.499988  Biso 1.000000     C
    C   1.0     0.765747     0.296401     0.000001  Biso 1.000000     C
    C   1.0     0.765746     0.296401     0.499989  Biso 1.000000     C
    C   1.0     0.765757     0.796390     0.000001  Biso 1.000000     C
    C   1.0     0.765757     0.796390     0.499989  Biso 1.000000     C
    C   1.0     0.307522    -0.000535     0.136539  Biso 1.000000     C
    C   1.0     0.307522    -0.000532     0.636525  Biso 1.000000     C
    C   1.0     0.307504     0.499438     0.136537  Biso 1.000000     C
    C   1.0     0.307502     0.499441     0.636527  Biso 1.000000     C
    C   1.0     0.807826     0.000505     0.136573  Biso 1.000000     C
    C   1.0     0.807826     0.000509     0.636558  Biso 1.000000     C
    C   1.0     0.807833     0.500504     0.136570  Biso 1.000000     C
    C   1.0     0.807831     0.500507     0.636556  Biso 1.000000     C
    C   1.0     0.234171     0.203639     0.249994  Biso 1.000000     C
    C   1.0     0.234169     0.203642     0.749983  Biso 1.000000     C
    C   1.0     0.234181     0.703627     0.249994  Biso 1.000000     C
    C   1.0     0.234180     0.703630     0.749983  Biso 1.000000     C
    C   1.0     0.734676     0.204914     0.249996  Biso 1.000000     C
    C   1.0     0.734674     0.204919     0.749984  Biso 1.000000     C
    C   1.0     0.734724     0.704917     0.249995  Biso 1.000000     C
    C   1.0     0.734721     0.704920     0.749984  Biso 1.000000     C
    O   1.0     0.383043     0.067032     0.355056  Biso 1.000000     O
    O   1.0     0.383045     0.067034     0.855049  Biso 1.000000     O
    O   1.0     0.383029     0.567002     0.355055  Biso 1.000000     O
    O   1.0     0.383029     0.567005     0.855045  Biso 1.000000     O
    O   1.0     0.883416     0.068065     0.355061  Biso 1.000000     O
    O   1.0     0.883414     0.068068     0.855048  Biso 1.000000     O
    O   1.0     0.883429     0.568060     0.355063  Biso 1.000000     O
    O   1.0     0.883429     0.568063     0.855052  Biso 1.000000     O
    O   1.0     0.315494     0.431834     0.355099  Biso 1.000000     O
    O   1.0     0.315494     0.431837     0.855090  Biso 1.000000     O
    O   1.0     0.315515     0.931846     0.355101  Biso 1.000000     O
    O   1.0     0.315516     0.931849     0.855094  Biso 1.000000     O
    O   1.0     0.815680     0.432859     0.355044  Biso 1.000000     O
    O   1.0     0.815678     0.432862     0.855034  Biso 1.000000     O
    O   1.0     0.815677     0.932846     0.355044  Biso 1.000000     O
    O   1.0     0.815674     0.932848     0.855032  Biso 1.000000     O
    O   1.0     0.484409     0.270930     0.310876  Biso 1.000000     O
    O   1.0     0.484408     0.270934     0.810865  Biso 1.000000     O
    O   1.0     0.484415     0.770899     0.310876  Biso 1.000000     O
    O   1.0     0.484414     0.770903     0.810864  Biso 1.000000     O
    O   1.0     0.984655     0.271103     0.310862  Biso 1.000000     O
    O   1.0     0.984654     0.271108     0.810851  Biso 1.000000     O
    O   1.0     0.984710     0.771103     0.310863  Biso 1.000000     O
    O   1.0     0.984708     0.771108     0.810851  Biso 1.000000     O
    O   1.0     0.131584     0.345867     0.249994  Biso 1.000000     O
    O   1.0     0.131585     0.345871     0.749982  Biso 1.000000     O
    O   1.0     0.131635     0.845875     0.249994  Biso 1.000000     O
    O   1.0     0.131634     0.845879     0.749982  Biso 1.000000     O
    O   1.0     0.630810     0.346495     0.249994  Biso 1.000000     O
    O   1.0     0.630809     0.346498     0.749982  Biso 1.000000     O
    O   1.0     0.630809     0.846474     0.249994  Biso 1.000000     O
    O   1.0     0.630809     0.846478     0.749982  Biso 1.000000     O
    O   1.0     0.484410     0.270929     0.189114  Biso 1.000000     O
    O   1.0     0.484409     0.270933     0.689102  Biso 1.000000     O
    O   1.0     0.484416     0.770899     0.189113  Biso 1.000000     O
    O   1.0     0.484415     0.770903     0.689102  Biso 1.000000     O
    O   1.0     0.984655     0.271103     0.189126  Biso 1.000000     O
    O   1.0     0.984655     0.271109     0.689114  Biso 1.000000     O
    O   1.0     0.984710     0.771104     0.189125  Biso 1.000000     O
    O   1.0     0.984709     0.771109     0.689113  Biso 1.000000     O
    O   1.0     0.116511     0.431978     0.105070  Biso 1.000000     O
    O   1.0     0.116511     0.431981     0.605057  Biso 1.000000     O
    O   1.0     0.116525     0.931974     0.105068  Biso 1.000000     O
    O   1.0     0.116523     0.931977     0.605056  Biso 1.000000     O
    O   1.0     0.616901     0.433043     0.105057  Biso 1.000000     O
    O   1.0     0.616898     0.433047     0.605046  Biso 1.000000     O
    O   1.0     0.616887     0.933014     0.105056  Biso 1.000000     O
    O   1.0     0.616886     0.933017     0.605045  Biso 1.000000     O
    O   1.0     0.184253     0.067193     0.105051  Biso 1.000000     O
    O   1.0     0.184251     0.067196     0.605041  Biso 1.000000     O
    O   1.0     0.184249     0.567179     0.105051  Biso 1.000000     O
    O   1.0     0.184248     0.567182     0.605039  Biso 1.000000     O
    O   1.0     0.684422     0.068199     0.105103  Biso 1.000000     O
    O   1.0     0.684421     0.068203     0.605092  Biso 1.000000     O
    O   1.0     0.684442     0.568211     0.105103  Biso 1.000000     O
    O   1.0     0.684440     0.568215     0.605092  Biso 1.000000     O
    O   1.0     0.015216     0.228942     0.060870  Biso 1.000000     O
    O   1.0     0.015215     0.228944     0.560859  Biso 1.000000     O
    O   1.0     0.015272     0.728942     0.060870  Biso 1.000000     O
    O   1.0     0.015271     0.728943     0.560858  Biso 1.000000     O
    O   1.0     0.515512     0.229148     0.060881  Biso 1.000000     O
    O   1.0     0.515510     0.229150     0.560869  Biso 1.000000     O
    O   1.0     0.515518     0.729116     0.060881  Biso 1.000000     O
    O   1.0     0.515516     0.729120     0.560869  Biso 1.000000     O
    O   1.0     0.369127     0.153558     0.499989  Biso 1.000000     O
    O   1.0     0.369127     0.153558     0.999977  Biso 1.000000     O
    O   1.0     0.369127     0.653536     0.499989  Biso 1.000000     O
    O   1.0     0.369126     0.653536     0.999977  Biso 1.000000     O
    O   1.0     0.868300     0.154162     0.499990  Biso 1.000000     O
    O   1.0     0.868299     0.154162     0.999977  Biso 1.000000     O
    O   1.0     0.868349     0.654170     0.499990  Biso 1.000000     O
    O   1.0     0.868348     0.654170     0.999977  Biso 1.000000     O
    O   1.0     0.015218     0.228944     0.439121  Biso 1.000000     O
    O   1.0     0.015216     0.228945     0.939108  Biso 1.000000     O
    O   1.0     0.015273     0.728943     0.439121  Biso 1.000000     O
    O   1.0     0.015271     0.728945     0.939109  Biso 1.000000     O
    O   1.0     0.515512     0.229148     0.439108  Biso 1.000000     O
    O   1.0     0.515512     0.229150     0.939097  Biso 1.000000     O
    O   1.0     0.515518     0.729118     0.439108  Biso 1.000000     O
    O   1.0     0.515517     0.729119     0.939096  Biso 1.000000     O
    O   1.0     0.184246     0.067190     0.394936  Biso 1.000000     O
    O   1.0     0.184248     0.067193     0.894930  Biso 1.000000     O
    O   1.0     0.184241     0.567178     0.394935  Biso 1.000000     O
    O   1.0     0.184241     0.567181     0.894926  Biso 1.000000     O
    O   1.0     0.684424     0.068197     0.394885  Biso 1.000000     O
    O   1.0     0.684422     0.068201     0.894872  Biso 1.000000     O
    O   1.0     0.684443     0.568210     0.394885  Biso 1.000000     O
    O   1.0     0.684443     0.568214     0.894875  Biso 1.000000     O
    O   1.0     0.116505     0.431977     0.394916  Biso 1.000000     O
    O   1.0     0.116505     0.431979     0.894907  Biso 1.000000     O
    O   1.0     0.116519     0.931971     0.394918  Biso 1.000000     O
    O   1.0     0.116521     0.931974     0.894912  Biso 1.000000     O
    O   1.0     0.616902     0.433043     0.394929  Biso 1.000000     O
    O   1.0     0.616902     0.433046     0.894920  Biso 1.000000     O
    O   1.0     0.616889     0.933012     0.394929  Biso 1.000000     O
    O   1.0     0.616888     0.933016     0.894916  Biso 1.000000     O
    O   1.0     0.285851     0.270168     0.439123  Biso 1.000000     O
    O   1.0     0.285852     0.270170     0.939110  Biso 1.000000     O
    O   1.0     0.285894     0.770168     0.439123  Biso 1.000000     O
    O   1.0     0.285895     0.770169     0.939110  Biso 1.000000     O
    O   1.0     0.786519     0.271539     0.439108  Biso 1.000000     O
    O   1.0     0.786519     0.271540     0.939096  Biso 1.000000     O
    O   1.0     0.786533     0.771529     0.439108  Biso 1.000000     O
    O   1.0     0.786533     0.771530     0.939096  Biso 1.000000     O
    O   1.0     0.214534     0.345515    -0.000000  Biso 1.000000     O
    O   1.0     0.214534     0.345516     0.499987  Biso 1.000000     O
    O   1.0     0.214585     0.845519     0.000000  Biso 1.000000     O
    O   1.0     0.214584     0.845520     0.499988  Biso 1.000000     O
    O   1.0     0.714815     0.346639     0.000000  Biso 1.000000     O
    O   1.0     0.714815     0.346639     0.499988  Biso 1.000000     O
    O   1.0     0.714815     0.846620     0.000000  Biso 1.000000     O
    O   1.0     0.714815     0.846620     0.499988  Biso 1.000000     O
    O   1.0     0.285855     0.270169     0.060865  Biso 1.000000     O
    O   1.0     0.285856     0.270172     0.560854  Biso 1.000000     O
    O   1.0     0.285901     0.770170     0.060865  Biso 1.000000     O
    O   1.0     0.285899     0.770171     0.560854  Biso 1.000000     O
    O   1.0     0.786520     0.271540     0.060883  Biso 1.000000     O
    O   1.0     0.786519     0.271541     0.560872  Biso 1.000000     O
    O   1.0     0.786533     0.771530     0.060883  Biso 1.000000     O
    O   1.0     0.786533     0.771531     0.560872  Biso 1.000000     O
    O   1.0     0.315497     0.431832     0.144888  Biso 1.000000     O
    O   1.0     0.315497     0.431835     0.644875  Biso 1.000000     O
    O   1.0     0.315517     0.931846     0.144886  Biso 1.000000     O
    O   1.0     0.315516     0.931849     0.644875  Biso 1.000000     O
    O   1.0     0.815676     0.432857     0.144944  Biso 1.000000     O
    O   1.0     0.815672     0.432860     0.644933  Biso 1.000000     O
    O   1.0     0.815671     0.932844     0.144942  Biso 1.000000     O
    O   1.0     0.815669     0.932847     0.644932  Biso 1.000000     O
    O   1.0     0.383047     0.067031     0.144933  Biso 1.000000     O
    O   1.0     0.383045     0.067034     0.644922  Biso 1.000000     O
    O   1.0     0.383034     0.567000     0.144934  Biso 1.000000     O
    O   1.0     0.383033     0.567004     0.644922  Biso 1.000000     O
    O   1.0     0.883412     0.068063     0.144927  Biso 1.000000     O
    O   1.0     0.883411     0.068066     0.644917  Biso 1.000000     O
    O   1.0     0.883426     0.568058     0.144927  Biso 1.000000     O
    O   1.0     0.883424     0.568061     0.644916  Biso 1.000000     O
    O   1.0     0.213395     0.228501     0.189113  Biso 1.000000     O
    O   1.0     0.213394     0.228503     0.689102  Biso 1.000000     O
    O   1.0     0.213409     0.728490     0.189112  Biso 1.000000     O
    O   1.0     0.213407     0.728493     0.689101  Biso 1.000000     O
    O   1.0     0.714027     0.229874     0.189130  Biso 1.000000     O
    O   1.0     0.714024     0.229877     0.689118  Biso 1.000000     O
    O   1.0     0.714071     0.729874     0.189130  Biso 1.000000     O
    O   1.0     0.714069     0.729877     0.689118  Biso 1.000000     O
    O   1.0     0.285113     0.153408     0.249995  Biso 1.000000     O
    O   1.0     0.285111     0.153410     0.749983  Biso 1.000000     O
    O   1.0     0.285113     0.653389     0.249995  Biso 1.000000     O
    O   1.0     0.285111     0.653392     0.749983  Biso 1.000000     O
    O   1.0     0.785348     0.154529     0.249995  Biso 1.000000     O
    O   1.0     0.785349     0.154534     0.749983  Biso 1.000000     O
    O   1.0     0.785400     0.654534     0.249995  Biso 1.000000     O
    O   1.0     0.785399     0.654538     0.749983  Biso 1.000000     O
    O   1.0     0.213396     0.228501     0.310875  Biso 1.000000     O
    O   1.0     0.213393     0.228502     0.810864  Biso 1.000000     O
    O   1.0     0.213410     0.728491     0.310875  Biso 1.000000     O
    O   1.0     0.213408     0.728493     0.810864  Biso 1.000000     O
    O   1.0     0.714030     0.229873     0.310862  Biso 1.000000     O
    O   1.0     0.714027     0.229877     0.810850  Biso 1.000000     O
    O   1.0     0.714075     0.729875     0.310861  Biso 1.000000     O
    O   1.0     0.714072     0.729878     0.810849  Biso 1.000000     O
    Y   1.0     0.338575     0.176618     0.374967  Biso 1.000000     Y
    Y   1.0     0.338575     0.176621     0.874956  Biso 1.000000     Y
    Y   1.0     0.338580     0.676598     0.374967  Biso 1.000000     Y
    Y   1.0     0.338579     0.676601     0.874955  Biso 1.000000     Y
    Y   1.0     0.838538     0.177560     0.374997  Biso 1.000000     Y
    Y   1.0     0.838537     0.177563     0.874984  Biso 1.000000     Y
    Y   1.0     0.838582     0.677564     0.374998  Biso 1.000000     Y
    Y   1.0     0.838580     0.677567     0.874986  Biso 1.000000     Y
    Y   1.0     0.161352     0.322476     0.374983  Biso 1.000000     Y
    Y   1.0     0.161351     0.322478     0.874972  Biso 1.000000     Y
    Y   1.0     0.161395     0.822479     0.374984  Biso 1.000000     Y
    Y   1.0     0.161395     0.822482     0.874974  Biso 1.000000     Y
    Y   1.0     0.661347     0.323441     0.375017  Biso 1.000000     Y
    Y   1.0     0.661346     0.323444     0.875006  Biso 1.000000     Y
    Y   1.0     0.661353     0.823420     0.375017  Biso 1.000000     Y
    Y   1.0     0.661351     0.823424     0.875006  Biso 1.000000     Y
    Y   1.0     0.161353     0.322476     0.125004  Biso 1.000000     Y
    Y   1.0     0.161352     0.322479     0.624991  Biso 1.000000     Y
    Y   1.0     0.161397     0.822480     0.125002  Biso 1.000000     Y
    Y   1.0     0.161396     0.822483     0.624990  Biso 1.000000     Y
    Y   1.0     0.661345     0.323441     0.124971  Biso 1.000000     Y
    Y   1.0     0.661343     0.323444     0.624959  Biso 1.000000     Y
    Y   1.0     0.661350     0.823421     0.124970  Biso 1.000000     Y
    Y   1.0     0.661349     0.823424     0.624958  Biso 1.000000     Y
    Y   1.0     0.338578     0.176619     0.125023  Biso 1.000000     Y
    Y   1.0     0.338577     0.176622     0.625012  Biso 1.000000     Y
    Y   1.0     0.338583     0.676598     0.125023  Biso 1.000000     Y
    Y   1.0     0.338583     0.676601     0.625012  Biso 1.000000     Y
    Y   1.0     0.838537     0.177560     0.124994  Biso 1.000000     Y
    Y   1.0     0.838536     0.177563     0.624984  Biso 1.000000     Y
    Y   1.0     0.838580     0.677564     0.124993  Biso 1.000000     Y
    Y   1.0     0.838579     0.677567     0.624982  Biso 1.000000     Y
