#======================================================================

# CRYSTAL DATA

#----------------------------------------------------------------------

data_VESTA_phase_1


_pd_phase_name                         MOF
_cell_length_a                         14.80700
_cell_length_b                         21.76200
_cell_length_c                         17.42500
_cell_angle_alpha                      108.15900
_cell_angle_beta                       92.77200
_cell_angle_gamma                      90.03500
_symmetry_space_group_name_H-M         "P 1"
_symmetry_Int_Tables_number            1

loop_
_symmetry_equiv_pos_as_xyz
   "x, y, z"

loop_
   _atom_site_label
   _atom_site_occupancy
   _atom_site_fract_x
   _atom_site_fract_y
   _atom_site_fract_z
   _atom_site_adp_type
   _atom_site_B_iso_or_equiv
   _atom_site_type_symbol
    H   1.0     0.347076     0.276376     0.224179  Biso 1.000000     H
    H   1.0     0.347040     0.775864     0.225271  Biso 1.000000     H
    H   1.0     0.847101     0.276375     0.224177  Biso 1.000000     H
    H   1.0     0.847064     0.775863     0.225269  Biso 1.000000     H
    H   1.0     0.428475     0.332716     0.355374  Biso 1.000000     H
    H   1.0     0.428609     0.832678     0.356252  Biso 1.000000     H
    H   1.0     0.928498     0.332715     0.355372  Biso 1.000000     H
    H   1.0     0.928631     0.832677     0.356251  Biso 1.000000     H
    H   1.0     0.384259     0.015104     0.313572  Biso 1.000000     H
    H   1.0     0.384630     0.515603     0.313844  Biso 1.000000     H
    H   1.0     0.884282     0.015103     0.313571  Biso 1.000000     H
    H   1.0     0.884653     0.515602     0.313843  Biso 1.000000     H
    H   1.0     0.299435     0.458846     0.183825  Biso 1.000000     H
    H   1.0     0.298917     0.957840     0.183763  Biso 1.000000     H
    H   1.0     0.799461     0.458846     0.183823  Biso 1.000000     H
    H   1.0     0.798942     0.957839     0.183761  Biso 1.000000     H
    H   1.0     0.297644     0.408983     0.438195  Biso 1.000000     H
    H   1.0     0.297577     0.908984     0.438613  Biso 1.000000     H
    H   1.0     0.797663     0.408980     0.438195  Biso 1.000000     H
    H   1.0     0.797596     0.908981     0.438614  Biso 1.000000     H
    H   1.0     0.226616     0.414121     0.564545  Biso 1.000000     H
    H   1.0     0.226807     0.914268     0.565113  Biso 1.000000     H
    H   1.0     0.726636     0.414119     0.564547  Biso 1.000000     H
    H   1.0     0.726826     0.914265     0.565115  Biso 1.000000     H
    H   1.0     0.301623     0.476883     0.697907  Biso 1.000000     H
    H   1.0     0.302035     0.977114     0.698332  Biso 1.000000     H
    H   1.0     0.801644     0.476880     0.697909  Biso 1.000000     H
    H   1.0     0.802057     0.977111     0.698333  Biso 1.000000     H
    H   1.0     0.054189     0.465832     0.296412  Biso 1.000000     H
    H   1.0     0.053830     0.965588     0.296284  Biso 1.000000     H
    H   1.0     0.554209     0.465831     0.296412  Biso 1.000000     H
    H   1.0     0.553850     0.965586     0.296284  Biso 1.000000     H
    H   1.0     0.403761     0.164544     0.775585  Biso 1.000000     H
    H   1.0     0.402821     0.663801     0.775649  Biso 1.000000     H
    H   1.0     0.903786     0.164544     0.775584  Biso 1.000000     H
    H   1.0     0.902846     0.663800     0.775648  Biso 1.000000     H
    H   1.0     0.321952     0.155071     0.644469  Biso 1.000000     H
    H   1.0     0.321360     0.654874     0.644545  Biso 1.000000     H
    H   1.0     0.821978     0.155070     0.644468  Biso 1.000000     H
    H   1.0     0.821387     0.654873     0.644543  Biso 1.000000     H
    H   1.0     0.365254     0.358722     0.685541  Biso 1.000000     H
    H   1.0     0.365858     0.858507     0.686429  Biso 1.000000     H
    H   1.0     0.865279     0.358721     0.685540  Biso 1.000000     H
    H   1.0     0.865881     0.858507     0.686429  Biso 1.000000     H
    H   1.0     0.450736     0.367198     0.815539  Biso 1.000000     H
    H   1.0     0.451113     0.866419     0.816360  Biso 1.000000     H
    H   1.0     0.950760     0.367197     0.815539  Biso 1.000000     H
    H   1.0     0.951136     0.866419     0.816360  Biso 1.000000     H
    H   1.0     0.452156     0.189683     0.561425  Biso 1.000000     H
    H   1.0     0.452402     0.689907     0.561954  Biso 1.000000     H
    H   1.0     0.952181     0.189682     0.561424  Biso 1.000000     H
    H   1.0     0.952428     0.689907     0.561953  Biso 1.000000     H
    H   1.0     0.522904     0.131560     0.435037  Biso 1.000000     H
    H   1.0     0.523197     0.631825     0.435565  Biso 1.000000     H
    H   1.0     0.000000     0.131560     0.435037  Biso 1.000000     H
    H   1.0     0.000000     0.631825     0.435565  Biso 1.000000     H
    H   1.0     0.447841     0.127695     0.301694  Biso 1.000000     H
    H   1.0     0.448084     0.627902     0.302220  Biso 1.000000     H
    H   1.0     0.947866     0.127694     0.301694  Biso 1.000000     H
    H   1.0     0.948110     0.627902     0.302220  Biso 1.000000     H
    H   1.0     0.196017     0.317577     0.703350  Biso 1.000000     H
    H   1.0     0.196210     0.817702     0.703860  Biso 1.000000     H
    H   1.0     0.696042     0.317577     0.703349  Biso 1.000000     H
    H   1.0     0.696235     0.817701     0.703860  Biso 1.000000     H
    H   1.0     0.152982     0.224124     0.774699  Biso 1.000000     H
    H   1.0     0.152946     0.723612     0.775793  Biso 1.000000     H
    H   1.0     0.653007     0.224123     0.774696  Biso 1.000000     H
    H   1.0     0.652970     0.723611     0.775791  Biso 1.000000     H
    H   1.0     0.071417     0.167304     0.643718  Biso 1.000000     H
    H   1.0     0.071549     0.667268     0.644599  Biso 1.000000     H
    H   1.0     0.571440     0.167304     0.643716  Biso 1.000000     H
    H   1.0     0.571571     0.667268     0.644598  Biso 1.000000     H
    H   1.0     0.115399     0.484385     0.686136  Biso 1.000000     H
    H   1.0     0.115774     0.984882     0.686406  Biso 1.000000     H
    H   1.0     0.615421     0.484384     0.686135  Biso 1.000000     H
    H   1.0     0.615797     0.984882     0.686406  Biso 1.000000     H
    H   1.0     0.201112     0.042152     0.816216  Biso 1.000000     H
    H   1.0     0.200591     0.541145     0.816155  Biso 1.000000     H
    H   1.0     0.701138     0.042151     0.816214  Biso 1.000000     H
    H   1.0     0.700616     0.541145     0.816153  Biso 1.000000     H
    H   1.0     0.202458     0.091000     0.561360  Biso 1.000000     H
    H   1.0     0.202387     0.591003     0.561780  Biso 1.000000     H
    H   1.0     0.702477     0.090998     0.561360  Biso 1.000000     H
    H   1.0     0.702407     0.591000     0.561781  Biso 1.000000     H
    H   1.0     0.273226     0.085717     0.434858  Biso 1.000000     H
    H   1.0     0.273413     0.585865     0.435429  Biso 1.000000     H
    H   1.0     0.773246     0.085715     0.434860  Biso 1.000000     H
    H   1.0     0.773433     0.585863     0.435430  Biso 1.000000     H
    H   1.0     0.197995     0.022871     0.301639  Biso 1.000000     H
    H   1.0     0.198404     0.523105     0.302067  Biso 1.000000     H
    H   1.0     0.698016     0.022868     0.301641  Biso 1.000000     H
    H   1.0     0.698426     0.523102     0.302068  Biso 1.000000     H
    H   1.0     0.446203     0.034395     0.703689  Biso 1.000000     H
    H   1.0     0.445840     0.534153     0.703563  Biso 1.000000     H
    H   1.0     0.946223     0.034394     0.703689  Biso 1.000000     H
    H   1.0     0.945860     0.534152     0.703563  Biso 1.000000     H
    H   1.0     0.097206     0.336192     0.224332  Biso 1.000000     H
    H   1.0     0.096270     0.835447     0.224394  Biso 1.000000     H
    H   1.0     0.597230     0.336192     0.224332  Biso 1.000000     H
    H   1.0     0.596295     0.835446     0.224393  Biso 1.000000     H
    H   1.0     0.178665     0.345114     0.355436  Biso 1.000000     H
    H   1.0     0.178076     0.844916     0.355510  Biso 1.000000     H
    H   1.0     0.678690     0.345114     0.355434  Biso 1.000000     H
    H   1.0     0.678103     0.844914     0.355508  Biso 1.000000     H
    H   1.0     0.134169     0.141480     0.313540  Biso 1.000000     H
    H   1.0     0.134770     0.641264     0.314430  Biso 1.000000     H
    H   1.0     0.634193     0.141479     0.313539  Biso 1.000000     H
    H   1.0     0.634793     0.641264     0.314430  Biso 1.000000     H
    H   1.0     0.048913     0.133573     0.183611  Biso 1.000000     H
    H   1.0     0.049288     0.632794     0.184432  Biso 1.000000     H
    H   1.0     0.548936     0.133572     0.183611  Biso 1.000000     H
    H   1.0     0.549311     0.632793     0.184432  Biso 1.000000     H
    H   1.0     0.047622     0.310077     0.438020  Biso 1.000000     H
    H   1.0     0.047868     0.810301     0.438548  Biso 1.000000     H
    H   1.0     0.547647     0.310076     0.438020  Biso 1.000000     H
    H   1.0     0.547894     0.810301     0.438548  Biso 1.000000     H
    H   1.0    -0.023174     0.368157     0.564409  Biso 1.000000     H
    H   1.0    -0.022880     0.868424     0.564935  Biso 1.000000     H
    H   1.0     0.476852     0.368158     0.564409  Biso 1.000000     H
    H   1.0     0.477146     0.868424     0.564935  Biso 1.000000     H
    H   1.0     0.051940     0.372080     0.697753  Biso 1.000000     H
    H   1.0     0.052184     0.872290     0.698279  Biso 1.000000     H
    H   1.0     0.551966     0.372080     0.697753  Biso 1.000000     H
    H   1.0     0.552210     0.872290     0.698278  Biso 1.000000     H
    H   1.0     0.303815     0.182283     0.296113  Biso 1.000000     H
    H   1.0     0.304008     0.682407     0.296624  Biso 1.000000     H
    H   1.0     0.803841     0.182283     0.296112  Biso 1.000000     H
    H   1.0     0.804033     0.682405     0.296623  Biso 1.000000     H
    C   1.0     0.260387     0.331484     0.121997  Biso 1.000000     C
    C   1.0     0.260231     0.830305     0.122679  Biso 1.000000     C
    C   1.0     0.760407     0.331483     0.121996  Biso 1.000000     C
    C   1.0     0.760255     0.830306     0.122675  Biso 1.000000     C
    C   1.0     0.317923     0.364166     0.195946  Biso 1.000000     C
    C   1.0     0.317630     0.863393     0.196542  Biso 1.000000     C
    C   1.0     0.817946     0.364165     0.195944  Biso 1.000000     C
    C   1.0     0.817650     0.863393     0.196542  Biso 1.000000     C
    C   1.0     0.355727     0.328774     0.244029  Biso 1.000000     C
    C   1.0     0.355628     0.828260     0.244853  Biso 1.000000     C
    C   1.0     0.855751     0.328773     0.244026  Biso 1.000000     C
    C   1.0     0.855650     0.828259     0.244852  Biso 1.000000     C
    C   1.0     0.401310     0.360636     0.317617  Biso 1.000000     C
    C   1.0     0.401278     0.860375     0.318289  Biso 1.000000     C
    C   1.0     0.901330     0.360635     0.317617  Biso 1.000000     C
    C   1.0     0.901300     0.860375     0.318288  Biso 1.000000     C
    C   1.0     0.411866     0.428288     0.344039  Biso 1.000000     C
    C   1.0     0.411739     0.928026     0.344282  Biso 1.000000     C
    C   1.0     0.911886     0.428287     0.344039  Biso 1.000000     C
    C   1.0     0.911757     0.928026     0.344283  Biso 1.000000     C
    C   1.0     0.376520     0.463105     0.293967  Biso 1.000000     C
    C   1.0     0.376207     0.962591     0.293988  Biso 1.000000     C
    C   1.0     0.876541     0.463104     0.293966  Biso 1.000000     C
    C   1.0     0.876228     0.962590     0.293987  Biso 1.000000     C
    C   1.0     0.329244     0.431658     0.221394  Biso 1.000000     C
    C   1.0     0.328857     0.930877     0.221549  Biso 1.000000     C
    C   1.0     0.829268     0.431657     0.221392  Biso 1.000000     C
    C   1.0     0.828881     0.930876     0.221547  Biso 1.000000     C
    C   1.0     0.457561     0.463775     0.423602  Biso 1.000000     C
    C   1.0     0.457476     0.963695     0.423716  Biso 1.000000     C
    C   1.0     0.957578     0.463774     0.423602  Biso 1.000000     C
    C   1.0     0.957497     0.963691     0.423717  Biso 1.000000     C
    C   1.0     0.040696     0.496658     0.426571  Biso 1.000000     C
    C   1.0     0.040562     0.996572     0.426476  Biso 1.000000     C
    C   1.0     0.540715     0.496656     0.426571  Biso 1.000000     C
    C   1.0     0.540581     0.996569     0.426476  Biso 1.000000     C
    C   1.0     0.416325     0.466582     0.496166  Biso 1.000000     C
    C   1.0     0.416339     0.966606     0.496354  Biso 1.000000     C
    C   1.0     0.916341     0.466583     0.496166  Biso 1.000000     C
    C   1.0     0.916354     0.966608     0.496355  Biso 1.000000     C
    C   1.0     0.331386     0.435244     0.496008  Biso 1.000000     C
    C   1.0     0.331424     0.935288     0.496359  Biso 1.000000     C
    C   1.0     0.831405     0.435241     0.496009  Biso 1.000000     C
    C   1.0     0.831443     0.935286     0.496360  Biso 1.000000     C
    C   1.0     0.291567     0.438238     0.566561  Biso 1.000000     C
    C   1.0     0.291743     0.938367     0.566999  Biso 1.000000     C
    C   1.0     0.791586     0.438237     0.566562  Biso 1.000000     C
    C   1.0     0.791763     0.938364     0.567000  Biso 1.000000     C
    C   1.0     0.334093     0.473838     0.642120  Biso 1.000000     C
    C   1.0     0.334401     0.974013     0.642478  Biso 1.000000     C
    C   1.0     0.834113     0.473835     0.642121  Biso 1.000000     C
    C   1.0     0.834421     0.974010     0.642479  Biso 1.000000     C
    C   1.0     0.085238     0.494106     0.354662  Biso 1.000000     C
    C   1.0     0.084970     0.993918     0.354468  Biso 1.000000     C
    C   1.0     0.585257     0.494104     0.354662  Biso 1.000000     C
    C   1.0     0.584989     0.993917     0.354468  Biso 1.000000     C
    C   1.0     0.490018     0.270784     0.877537  Biso 1.000000     C
    C   1.0     0.489716     0.769731     0.877935  Biso 1.000000     C
    C   1.0     0.990043     0.270783     0.877534  Biso 1.000000     C
    C   1.0     0.989736     0.769733     0.877936  Biso 1.000000     C
    C   1.0     0.432565     0.266450     0.803566  Biso 1.000000     C
    C   1.0     0.432245     0.765666     0.804039  Biso 1.000000     C
    C   1.0     0.932588     0.266451     0.803566  Biso 1.000000     C
    C   1.0     0.932269     0.765666     0.804037  Biso 1.000000     C
    C   1.0     0.394856     0.206955     0.755630  Biso 1.000000     C
    C   1.0     0.394269     0.706334     0.755886  Biso 1.000000     C
    C   1.0     0.894880     0.206955     0.755630  Biso 1.000000     C
    C   1.0     0.894294     0.706333     0.755886  Biso 1.000000     C
    C   1.0     0.349098     0.201905     0.682093  Biso 1.000000     C
    C   1.0     0.348677     0.701592     0.682362  Biso 1.000000     C
    C   1.0     0.849123     0.201904     0.682092  Biso 1.000000     C
    C   1.0     0.848701     0.701591     0.682362  Biso 1.000000     C
    C   1.0     0.338257     0.256312     0.655620  Biso 1.000000     C
    C   1.0     0.338273     0.756140     0.656108  Biso 1.000000     C
    C   1.0     0.838283     0.256310     0.655618  Biso 1.000000     C
    C   1.0     0.838297     0.756139     0.656107  Biso 1.000000     C
    C   1.0     0.373578     0.316215     0.705517  Biso 1.000000     C
    C   1.0     0.373843     0.815887     0.706225  Biso 1.000000     C
    C   1.0     0.873601     0.316215     0.705516  Biso 1.000000     C
    C   1.0     0.873869     0.815886     0.706223  Biso 1.000000     C
    C   1.0     0.420999     0.321178     0.778065  Biso 1.000000     C
    C   1.0     0.421135     0.820533     0.778738  Biso 1.000000     C
    C   1.0     0.921022     0.321177     0.778064  Biso 1.000000     C
    C   1.0     0.921157     0.820533     0.778737  Biso 1.000000     C
    C   1.0     0.292459     0.251913     0.576081  Biso 1.000000     C
    C   1.0     0.292603     0.751987     0.576590  Biso 1.000000     C
    C   1.0     0.792485     0.251914     0.576080  Biso 1.000000     C
    C   1.0     0.792629     0.751989     0.576589  Biso 1.000000     C
    C   1.0     0.209358     0.283316     0.573175  Biso 1.000000     C
    C   1.0     0.209558     0.783460     0.573690  Biso 1.000000     C
    C   1.0     0.709384     0.283315     0.573175  Biso 1.000000     C
    C   1.0     0.709580     0.783456     0.573689  Biso 1.000000     C
    C   1.0     0.333530     0.218370     0.503496  Biso 1.000000     C
    C   1.0     0.333733     0.718522     0.504009  Biso 1.000000     C
    C   1.0     0.833555     0.218369     0.503496  Biso 1.000000     C
    C   1.0     0.833761     0.718525     0.504009  Biso 1.000000     C
    C   1.0     0.418374     0.187059     0.503627  Biso 1.000000     C
    C   1.0     0.418612     0.687258     0.504150  Biso 1.000000     C
    C   1.0     0.918400     0.187059     0.503627  Biso 1.000000     C
    C   1.0     0.918637     0.687257     0.504150  Biso 1.000000     C
    C   1.0     0.458036     0.154729     0.433049  Biso 1.000000     C
    C   1.0     0.458297     0.654953     0.433574  Biso 1.000000     C
    C   1.0     0.958061     0.154728     0.433048  Biso 1.000000     C
    C   1.0     0.958323     0.654953     0.433574  Biso 1.000000     C
    C   1.0     0.415475     0.152577     0.357500  Biso 1.000000     C
    C   1.0     0.415711     0.652769     0.358024  Biso 1.000000     C
    C   1.0     0.915501     0.152577     0.357500  Biso 1.000000     C
    C   1.0     0.915737     0.652768     0.358025  Biso 1.000000     C
    C   1.0     0.164939     0.316740     0.645106  Biso 1.000000     C
    C   1.0     0.165139     0.816885     0.645622  Biso 1.000000     C
    C   1.0     0.664964     0.316739     0.645105  Biso 1.000000     C
    C   1.0     0.665166     0.816887     0.645621  Biso 1.000000     C
    C   1.0     0.239793     0.169686     0.877297  Biso 1.000000     C
    C   1.0     0.239641     0.668507     0.877977  Biso 1.000000     C
    C   1.0     0.739812     0.169685     0.877297  Biso 1.000000     C
    C   1.0     0.739662     0.668507     0.877976  Biso 1.000000     C
    C   1.0     0.182397     0.136596     0.803432  Biso 1.000000     C
    C   1.0     0.182101     0.635824     0.804031  Biso 1.000000     C
    C   1.0     0.682420     0.136596     0.803430  Biso 1.000000     C
    C   1.0     0.682122     0.635823     0.804029  Biso 1.000000     C
    C   1.0     0.144399     0.171727     0.755118  Biso 1.000000     C
    C   1.0     0.144298     0.671214     0.755945  Biso 1.000000     C
    C   1.0     0.644422     0.171726     0.755116  Biso 1.000000     C
    C   1.0     0.644321     0.671213     0.755944  Biso 1.000000     C
    C   1.0     0.098749     0.139609     0.681683  Biso 1.000000     C
    C   1.0     0.098717     0.639351     0.682357  Biso 1.000000     C
    C   1.0     0.598770     0.139608     0.681682  Biso 1.000000     C
    C   1.0     0.598738     0.639350     0.682356  Biso 1.000000     C
    C   1.0     0.088296     0.071958     0.655690  Biso 1.000000     C
    C   1.0     0.088165     0.571698     0.655936  Biso 1.000000     C
    C   1.0     0.588316     0.071957     0.655690  Biso 1.000000     C
    C   1.0     0.588182     0.571698     0.655937  Biso 1.000000     C
    C   1.0     0.123825     0.037396     0.705988  Biso 1.000000     C
    C   1.0     0.123507     0.536883     0.706012  Biso 1.000000     C
    C   1.0     0.623848     0.037396     0.705987  Biso 1.000000     C
    C   1.0     0.623530     0.536882     0.706009  Biso 1.000000     C
    C   1.0     0.171172     0.069112     0.778428  Biso 1.000000     C
    C   1.0     0.170784     0.568332     0.778584  Biso 1.000000     C
    C   1.0     0.671195     0.069112     0.778427  Biso 1.000000     C
    C   1.0     0.670806     0.568331     0.778582  Biso 1.000000     C
    C   1.0     0.042555     0.036291     0.576257  Biso 1.000000     C
    C   1.0     0.042471     0.536210     0.576374  Biso 1.000000     C
    C   1.0     0.542574     0.036289     0.576257  Biso 1.000000     C
    C   1.0     0.542491     0.536206     0.576374  Biso 1.000000     C
    C   1.0     0.459471     0.003413     0.573498  Biso 1.000000     C
    C   1.0     0.459334     0.503329     0.573404  Biso 1.000000     C
    C   1.0     0.959492     0.003408     0.573498  Biso 1.000000     C
    C   1.0     0.959354     0.503324     0.573405  Biso 1.000000     C
    C   1.0     0.083698     0.033374     0.503619  Biso 1.000000     C
    C   1.0     0.083708     0.533402     0.503810  Biso 1.000000     C
    C   1.0     0.583716     0.033374     0.503619  Biso 1.000000     C
    C   1.0     0.583725     0.533401     0.503810  Biso 1.000000     C
    C   1.0     0.168610     0.064695     0.503614  Biso 1.000000     C
    C   1.0     0.168644     0.564743     0.503967  Biso 1.000000     C
    C   1.0     0.668630     0.064693     0.503614  Biso 1.000000     C
    C   1.0     0.668663     0.564741     0.503967  Biso 1.000000     C
    C   1.0     0.208288     0.061618     0.432973  Biso 1.000000     C
    C   1.0     0.208463     0.561747     0.433414  Biso 1.000000     C
    C   1.0     0.708308     0.061616     0.432974  Biso 1.000000     C
    C   1.0     0.708484     0.561743     0.433415  Biso 1.000000     C
    C   1.0     0.165632     0.025971     0.357494  Biso 1.000000     C
    C   1.0     0.165935     0.526149     0.357855  Biso 1.000000     C
    C   1.0     0.665651     0.025970     0.357495  Biso 1.000000     C
    C   1.0     0.665955     0.526147     0.357856  Biso 1.000000     C
    C   1.0     0.415064     0.006065     0.645506  Biso 1.000000     C
    C   1.0     0.414792     0.505879     0.645313  Biso 1.000000     C
    C   1.0     0.915082     0.006064     0.645506  Biso 1.000000     C
    C   1.0     0.914810     0.505879     0.645314  Biso 1.000000     C
    C   1.0     0.010307     0.230259     0.122043  Biso 1.000000     C
    C   1.0     0.010003     0.729208     0.122443  Biso 1.000000     C
    C   1.0     0.510329     0.230259     0.122042  Biso 1.000000     C
    C   1.0     0.510026     0.729208     0.122442  Biso 1.000000     C
    C   1.0     0.067782     0.234325     0.195937  Biso 1.000000     C
    C   1.0     0.067464     0.733540     0.196408  Biso 1.000000     C
    C   1.0     0.567805     0.234325     0.195936  Biso 1.000000     C
    C   1.0     0.567488     0.733540     0.196407  Biso 1.000000     C
    C   1.0     0.105756     0.293657     0.244091  Biso 1.000000     C
    C   1.0     0.105172     0.793034     0.244346  Biso 1.000000     C
    C   1.0     0.605781     0.293657     0.244091  Biso 1.000000     C
    C   1.0     0.605198     0.793034     0.244346  Biso 1.000000     C
    C   1.0     0.151352     0.298396     0.317613  Biso 1.000000     C
    C   1.0     0.150931     0.798083     0.317883  Biso 1.000000     C
    C   1.0     0.651376     0.298396     0.317613  Biso 1.000000     C
    C   1.0     0.650956     0.798082     0.317883  Biso 1.000000     C
    C   1.0     0.161753     0.243848     0.343866  Biso 1.000000     C
    C   1.0     0.161768     0.743676     0.344355  Biso 1.000000     C
    C   1.0     0.661778     0.243846     0.343865  Biso 1.000000     C
    C   1.0     0.661793     0.743674     0.344354  Biso 1.000000     C
    C   1.0     0.126181     0.184102     0.293749  Biso 1.000000     C
    C   1.0     0.126449     0.683772     0.294456  Biso 1.000000     C
    C   1.0     0.626205     0.184101     0.293747  Biso 1.000000     C
    C   1.0     0.626473     0.683771     0.294454  Biso 1.000000     C
    C   1.0     0.078893     0.179457     0.221235  Biso 1.000000     C
    C   1.0     0.079028     0.678812     0.221909  Biso 1.000000     C
    C   1.0     0.578916     0.179457     0.221234  Biso 1.000000     C
    C   1.0     0.579051     0.678812     0.221908  Biso 1.000000     C
    C   1.0     0.207421     0.247995     0.423384  Biso 1.000000     C
    C   1.0     0.207565     0.748069     0.423893  Biso 1.000000     C
    C   1.0     0.707448     0.247997     0.423383  Biso 1.000000     C
    C   1.0     0.707592     0.748070     0.423892  Biso 1.000000     C
    C   1.0     0.290470     0.216528     0.426284  Biso 1.000000     C
    C   1.0     0.290668     0.716670     0.426799  Biso 1.000000     C
    C   1.0     0.790495     0.216528     0.426284  Biso 1.000000     C
    C   1.0     0.790691     0.716666     0.426798  Biso 1.000000     C
    C   1.0     0.166290     0.281459     0.495964  Biso 1.000000     C
    C   1.0     0.166493     0.781612     0.496477  Biso 1.000000     C
    C   1.0     0.666314     0.281457     0.495964  Biso 1.000000     C
    C   1.0     0.666520     0.781613     0.496476  Biso 1.000000     C
    C   1.0     0.081412     0.312726     0.495824  Biso 1.000000     C
    C   1.0     0.081651     0.812925     0.496346  Biso 1.000000     C
    C   1.0     0.581438     0.312727     0.495823  Biso 1.000000     C
    C   1.0     0.581676     0.812925     0.496345  Biso 1.000000     C
    C   1.0     0.041726     0.345030     0.566400  Biso 1.000000     C
    C   1.0     0.041988     0.845255     0.566924  Biso 1.000000     C
    C   1.0     0.541752     0.345030     0.566399  Biso 1.000000     C
    C   1.0     0.542014     0.845255     0.566924  Biso 1.000000     C
    C   1.0     0.084313     0.347214     0.641949  Biso 1.000000     C
    C   1.0     0.084550     0.847408     0.642472  Biso 1.000000     C
    C   1.0     0.584339     0.347214     0.641949  Biso 1.000000     C
    C   1.0     0.584575     0.847407     0.642472  Biso 1.000000     C
    C   1.0     0.334883     0.183097     0.354351  Biso 1.000000     C
    C   1.0     0.335084     0.683242     0.354867  Biso 1.000000     C
    C   1.0     0.834909     0.183097     0.354351  Biso 1.000000     C
    C   1.0     0.835111     0.683243     0.354867  Biso 1.000000     C
    O   1.0     0.203074     0.365353     0.096510  Biso 1.000000     O
    O   1.0     0.203083     0.863973     0.096596  Biso 1.000000     O
    O   1.0     0.703094     0.365353     0.096510  Biso 1.000000     O
    O   1.0     0.703102     0.863973     0.096597  Biso 1.000000     O
    O   1.0     0.265366     0.269932     0.087456  Biso 1.000000     O
    O   1.0     0.265195     0.768689     0.088995  Biso 1.000000     O
    O   1.0     0.765386     0.269931     0.087454  Biso 1.000000     O
    O   1.0     0.765214     0.768689     0.088995  Biso 1.000000     O
    O   1.0     0.047071     0.317541     0.903349  Biso 1.000000     O
    O   1.0     0.047083     0.816306     0.903601  Biso 1.000000     O
    O   1.0     0.547088     0.317537     0.903346  Biso 1.000000     O
    O   1.0     0.547099     0.816304     0.903599  Biso 1.000000     O
    O   1.0     0.485258     0.226215     0.911697  Biso 1.000000     O
    O   1.0     0.484643     0.725270     0.912223  Biso 1.000000     O
    O   1.0     0.985282     0.226215     0.911697  Biso 1.000000     O
    O   1.0     0.984663     0.725270     0.912223  Biso 1.000000     O
    O   1.0     0.296933     0.136018     0.903389  Biso 1.000000     O
    O   1.0     0.296943     0.634636     0.903475  Biso 1.000000     O
    O   1.0     0.796954     0.136018     0.903389  Biso 1.000000     O
    O   1.0     0.796963     0.634636     0.903475  Biso 1.000000     O
    O   1.0     0.234830     0.231303     0.910973  Biso 1.000000     O
    O   1.0     0.234658     0.730059     0.912518  Biso 1.000000     O
    O   1.0     0.734851     0.231303     0.910971  Biso 1.000000     O
    O   1.0     0.734679     0.730059     0.912516  Biso 1.000000     O
    O   1.0     0.452943     0.183688     0.096386  Biso 1.000000     O
    O   1.0     0.452956     0.682455     0.096637  Biso 1.000000     O
    O   1.0     0.952959     0.183686     0.096384  Biso 1.000000     O
    O   1.0     0.952972     0.682452     0.096635  Biso 1.000000     O
    O   1.0     0.015382     0.274716     0.087746  Biso 1.000000     O
    O   1.0     0.014768     0.773770     0.088272  Biso 1.000000     O
    O   1.0     0.515401     0.274716     0.087747  Biso 1.000000     O
    O   1.0     0.514792     0.773770     0.088272  Biso 1.000000     O
   Cd   1.0     0.125240     0.285996    -0.000354  Biso 1.000000    Cd
   Cd   1.0     0.124640     0.784903     0.000289  Biso 1.000000    Cd
   Cd   1.0     0.625259     0.285998    -0.000355  Biso 1.000000    Cd
   Cd   1.0     0.624659     0.784904     0.000286  Biso 1.000000    Cd
   Cd   1.0     0.375388     0.215087    -0.000301  Biso 1.000000    Cd
   Cd   1.0     0.374789     0.713993     0.000341  Biso 1.000000    Cd
   Cd   1.0     0.875409     0.215088    -0.000304  Biso 1.000000    Cd
   Cd   1.0     0.874807     0.713994     0.000339  Biso 1.000000    Cd
