#======================================================================

# CRYSTAL DATA

#----------------------------------------------------------------------

data_VESTA_phase_1


_pd_phase_name                         MOF
_cell_length_a                         11.32500
_cell_length_b                         19.51000
_cell_length_c                         25.16900
_cell_angle_alpha                      90.00400
_cell_angle_beta                       90.07900
_cell_angle_gamma                      97.19800
_symmetry_space_group_name_H-M         "P 1"
_symmetry_Int_Tables_number            1

loop_
_symmetry_equiv_pos_as_xyz
   "x, y, z"

loop_
   _atom_site_label
   _atom_site_occupancy
   _atom_site_fract_x
   _atom_site_fract_y
   _atom_site_fract_z
   _atom_site_adp_type
   _atom_site_B_iso_or_equiv
   _atom_site_type_symbol
    H   1.0     0.229209     0.906740     0.103456  Biso 1.000000     H
    H   1.0     0.729206     0.906740     0.103456  Biso 1.000000     H
    H   1.0     0.184859     0.831414     0.183700  Biso 1.000000     H
    H   1.0     0.684856     0.831414     0.183700  Biso 1.000000     H
    H   1.0     0.498477     0.734930     0.147326  Biso 1.000000     H
    H   1.0     0.998474     0.734930     0.147326  Biso 1.000000     H
    H   1.0     0.029994     0.813590     0.068179  Biso 1.000000     H
    H   1.0     0.529991     0.813590     0.068179  Biso 1.000000     H
    H   1.0     0.052238     0.586807     0.245608  Biso 1.000000     H
    H   1.0     0.552233     0.586808     0.245609  Biso 1.000000     H
    H   1.0     0.022868     0.519235     0.330474  Biso 1.000000     H
    H   1.0     0.522864     0.519236     0.330474  Biso 1.000000     H
    H   1.0     0.031582     0.694848     0.427032  Biso 1.000000     H
    H   1.0     0.531577     0.694849     0.427032  Biso 1.000000     H
    H   1.0     0.051344     0.765683     0.343518  Biso 1.000000     H
    H   1.0     0.551340     0.765683     0.343518  Biso 1.000000     H
    H   1.0     0.271568     0.593814     0.603359  Biso 1.000000     H
    H   1.0     0.771564     0.593813     0.603359  Biso 1.000000     H
    H   1.0     0.315435     0.669053     0.683712  Biso 1.000000     H
    H   1.0     0.815431     0.669052     0.683713  Biso 1.000000     H
    H   1.0     0.001393     0.765132     0.646895  Biso 1.000000     H
    H   1.0     0.501391     0.765132     0.646895  Biso 1.000000     H
    H   1.0     0.470438     0.686569     0.567617  Biso 1.000000     H
    H   1.0     0.970434     0.686569     0.567617  Biso 1.000000     H
    H   1.0     0.446786     0.914092     0.746083  Biso 1.000000     H
    H   1.0     0.946784     0.914091     0.746084  Biso 1.000000     H
    H   1.0     0.475721    -0.018710     0.831174  Biso 1.000000     H
    H   1.0     0.975718    -0.018710     0.831174  Biso 1.000000     H
    H   1.0     0.467581     0.804648     0.926614  Biso 1.000000     H
    H   1.0     0.967576     0.804649     0.926614  Biso 1.000000     H
    H   1.0     0.448309     0.734002     0.842925  Biso 1.000000     H
    H   1.0     0.948304     0.734004     0.842925  Biso 1.000000     H
    H   1.0     0.270820     0.093256     0.896542  Biso 1.000000     H
    H   1.0     0.770816     0.093255     0.896542  Biso 1.000000     H
    H   1.0     0.315171     0.168581     0.816298  Biso 1.000000     H
    H   1.0     0.815167     0.168581     0.816297  Biso 1.000000     H
    H   1.0     0.001554     0.265067     0.852670  Biso 1.000000     H
    H   1.0     0.501550     0.265067     0.852671  Biso 1.000000     H
    H   1.0     0.470036     0.186407     0.931818  Biso 1.000000     H
    H   1.0     0.970032     0.186406     0.931818  Biso 1.000000     H
    H   1.0     0.447796     0.413187     0.754387  Biso 1.000000     H
    H   1.0     0.947791     0.413188     0.754388  Biso 1.000000     H
    H   1.0     0.477163     0.480759     0.669522  Biso 1.000000     H
    H   1.0     0.977160     0.480759     0.669522  Biso 1.000000     H
    H   1.0     0.468448     0.305145     0.572966  Biso 1.000000     H
    H   1.0     0.968444     0.305144     0.572966  Biso 1.000000     H
    H   1.0     0.448685     0.234312     0.656480  Biso 1.000000     H
    H   1.0     0.948684     0.234310     0.656480  Biso 1.000000     H
    H   1.0     0.228460     0.406183     0.396640  Biso 1.000000     H
    H   1.0     0.728457     0.406182     0.396640  Biso 1.000000     H
    H   1.0     0.184593     0.330944     0.316286  Biso 1.000000     H
    H   1.0     0.684590     0.330944     0.316286  Biso 1.000000     H
    H   1.0     0.498634     0.234864     0.353103  Biso 1.000000     H
    H   1.0     0.998631     0.234864     0.353103  Biso 1.000000     H
    H   1.0     0.029590     0.313427     0.432382  Biso 1.000000     H
    H   1.0     0.529587     0.313427     0.432381  Biso 1.000000     H
    H   1.0     0.053243     0.085904     0.253914  Biso 1.000000     H
    H   1.0     0.553240     0.085904     0.253915  Biso 1.000000     H
    H   1.0     0.024312     0.000000     0.168824  Biso 1.000000     H
    H   1.0     0.524307     0.000000     0.168824  Biso 1.000000     H
    H   1.0     0.032450     0.195348     0.073385  Biso 1.000000     H
    H   1.0     0.532446     0.195350     0.073385  Biso 1.000000     H
    H   1.0     0.051722     0.265994     0.157074  Biso 1.000000     H
    H   1.0     0.551716     0.265996     0.157073  Biso 1.000000     H
    C   1.0     0.286107     0.867787     0.114343  Biso 1.000000     C
    C   1.0     0.786103     0.867787     0.114343  Biso 1.000000     C
    C   1.0     0.261771     0.825994     0.158803  Biso 1.000000     C
    C   1.0     0.761768     0.825995     0.158803  Biso 1.000000     C
    C   1.0     0.339631     0.778382     0.171308  Biso 1.000000     C
    C   1.0     0.839627     0.778381     0.171307  Biso 1.000000     C
    C   1.0     0.436513     0.771814     0.138394  Biso 1.000000     C
    C   1.0     0.936510     0.771814     0.138394  Biso 1.000000     C
    C   1.0     0.454599     0.815354     0.094772  Biso 1.000000     C
    C   1.0     0.954596     0.815353     0.094772  Biso 1.000000     C
    C   1.0     0.221548     0.688648     0.223518  Biso 1.000000     C
    C   1.0     0.721547     0.688645     0.223517  Biso 1.000000     C
    C   1.0     0.210659     0.647753     0.272958  Biso 1.000000     C
    C   1.0     0.710654     0.647755     0.272959  Biso 1.000000     C
    C   1.0     0.295379     0.660381     0.314623  Biso 1.000000     C
    C   1.0     0.795375     0.660383     0.314623  Biso 1.000000     C
    C   1.0     0.394549     0.712003     0.308313  Biso 1.000000     C
    C   1.0     0.894545     0.712004     0.308314  Biso 1.000000     C
    C   1.0     0.413897     0.751542     0.258536  Biso 1.000000     C
    C   1.0     0.913897     0.751539     0.258535  Biso 1.000000     C
    C   1.0     0.115514     0.596042     0.278240  Biso 1.000000     C
    C   1.0     0.615508     0.596044     0.278241  Biso 1.000000     C
    C   1.0     0.099994     0.557995     0.325422  Biso 1.000000     C
    C   1.0     0.599992     0.557994     0.325422  Biso 1.000000     C
    C   1.0     0.178308     0.570820     0.367905  Biso 1.000000     C
    C   1.0     0.678305     0.570820     0.367904  Biso 1.000000     C
    C   1.0     0.281251     0.620792     0.362875  Biso 1.000000     C
    C   1.0     0.781250     0.620791     0.362874  Biso 1.000000     C
    C   1.0     0.371443     0.633540     0.402703  Biso 1.000000     C
    C   1.0     0.871442     0.633539     0.402703  Biso 1.000000     C
    C   1.0     0.464268     0.686642     0.395986  Biso 1.000000     C
    C   1.0     0.964267     0.686640     0.395986  Biso 1.000000     C
    C   1.0     0.476274     0.725684     0.349225  Biso 1.000000     C
    C   1.0     0.976270     0.725685     0.349225  Biso 1.000000     C
    C   1.0     0.136897     0.536781     0.419521  Biso 1.000000     C
    C   1.0     0.636887     0.536782     0.419520  Biso 1.000000     C
    C   1.0     0.387035     0.585531     0.448398  Biso 1.000000     C
    C   1.0     0.887024     0.585530     0.448398  Biso 1.000000     C
    C   1.0     0.214517     0.632701     0.614141  Biso 1.000000     C
    C   1.0     0.714514     0.632701     0.614141  Biso 1.000000     C
    C   1.0     0.238577     0.674448     0.658681  Biso 1.000000     C
    C   1.0     0.738573     0.674447     0.658682  Biso 1.000000     C
    C   1.0     0.160442     0.721907     0.671106  Biso 1.000000     C
    C   1.0     0.660441     0.721907     0.671106  Biso 1.000000     C
    C   1.0     0.063600     0.728391     0.638023  Biso 1.000000     C
    C   1.0     0.563596     0.728390     0.638023  Biso 1.000000     C
    C   1.0     0.045828     0.684915     0.594325  Biso 1.000000     C
    C   1.0     0.545826     0.684915     0.594326  Biso 1.000000     C
    C   1.0     0.278125     0.811741     0.723582  Biso 1.000000     C
    C   1.0     0.778118     0.811744     0.723581  Biso 1.000000     C
    C   1.0     0.288664     0.852659     0.773054  Biso 1.000000     C
    C   1.0     0.788663     0.852657     0.773055  Biso 1.000000     C
    C   1.0     0.203862     0.839777     0.814557  Biso 1.000000     C
    C   1.0     0.703860     0.839775     0.814558  Biso 1.000000     C
    C   1.0     0.104952     0.788020     0.808061  Biso 1.000000     C
    C   1.0     0.604951     0.788017     0.808063  Biso 1.000000     C
    C   1.0     0.085969     0.748456     0.758275  Biso 1.000000     C
    C   1.0     0.585963     0.748459     0.758274  Biso 1.000000     C
    C   1.0     0.383447     0.904593     0.778590  Biso 1.000000     C
    C   1.0     0.883445     0.904591     0.778591  Biso 1.000000     C
    C   1.0     0.398755     0.942442     0.825922  Biso 1.000000     C
    C   1.0     0.898750     0.942442     0.825922  Biso 1.000000     C
    C   1.0     0.320472     0.929222     0.868270  Biso 1.000000     C
    C   1.0     0.820467     0.929223     0.868269  Biso 1.000000     C
    C   1.0     0.217724     0.879170     0.862906  Biso 1.000000     C
    C   1.0     0.717720     0.879171     0.862906  Biso 1.000000     C
    C   1.0     0.127571     0.866171     0.902584  Biso 1.000000     C
    C   1.0     0.627567     0.866171     0.902585  Biso 1.000000     C
    C   1.0     0.034881     0.813026     0.895659  Biso 1.000000     C
    C   1.0     0.534877     0.813026     0.895659  Biso 1.000000     C
    C   1.0     0.023167     0.774110     0.848820  Biso 1.000000     C
    C   1.0     0.523166     0.774108     0.848822  Biso 1.000000     C
    C   1.0     0.361519     0.962626     0.920215  Biso 1.000000     C
    C   1.0     0.861525     0.962625     0.920214  Biso 1.000000     C
    C   1.0     0.111984     0.913973     0.948376  Biso 1.000000     C
    C   1.0     0.611988     0.913973     0.948377  Biso 1.000000     C
    C   1.0     0.213924     0.132210     0.885655  Biso 1.000000     C
    C   1.0     0.713919     0.132209     0.885654  Biso 1.000000     C
    C   1.0     0.238259     0.174001     0.841194  Biso 1.000000     C
    C   1.0     0.738256     0.174001     0.841194  Biso 1.000000     C
    C   1.0     0.160402     0.221615     0.828690  Biso 1.000000     C
    C   1.0     0.660396     0.221614     0.828690  Biso 1.000000     C
    C   1.0     0.063517     0.228182     0.861603  Biso 1.000000     C
    C   1.0     0.563515     0.228183     0.861603  Biso 1.000000     C
    C   1.0     0.045431     0.184644     0.905225  Biso 1.000000     C
    C   1.0     0.545428     0.184643     0.905225  Biso 1.000000     C
    C   1.0     0.278478     0.311353     0.776481  Biso 1.000000     C
    C   1.0     0.778481     0.311348     0.776479  Biso 1.000000     C
    C   1.0     0.289374     0.352240     0.727038  Biso 1.000000     C
    C   1.0     0.789367     0.352243     0.727040  Biso 1.000000     C
    C   1.0     0.204653     0.339612     0.685374  Biso 1.000000     C
    C   1.0     0.704647     0.339615     0.685375  Biso 1.000000     C
    C   1.0     0.105485     0.287989     0.691683  Biso 1.000000     C
    C   1.0     0.605477     0.287993     0.691685  Biso 1.000000     C
    C   1.0     0.086127     0.248459     0.741464  Biso 1.000000     C
    C   1.0     0.586130     0.248454     0.741462  Biso 1.000000     C
    C   1.0     0.384521     0.403950     0.721756  Biso 1.000000     C
    C   1.0     0.884514     0.403952     0.721757  Biso 1.000000     C
    C   1.0     0.400034     0.442001     0.674576  Biso 1.000000     C
    C   1.0     0.900033     0.442000     0.674575  Biso 1.000000     C
    C   1.0     0.321720     0.429175     0.632093  Biso 1.000000     C
    C   1.0     0.821718     0.429175     0.632092  Biso 1.000000     C
    C   1.0     0.218776     0.379204     0.637123  Biso 1.000000     C
    C   1.0     0.718775     0.379202     0.637123  Biso 1.000000     C
    C   1.0     0.128583     0.366455     0.597294  Biso 1.000000     C
    C   1.0     0.628582     0.366454     0.597294  Biso 1.000000     C
    C   1.0     0.035760     0.313353     0.604012  Biso 1.000000     C
    C   1.0     0.535758     0.313352     0.604012  Biso 1.000000     C
    C   1.0     0.023758     0.274308     0.650772  Biso 1.000000     C
    C   1.0     0.523751     0.274311     0.650774  Biso 1.000000     C
    C   1.0     0.363140     0.463214     0.580477  Biso 1.000000     C
    C   1.0     0.863123     0.463216     0.580476  Biso 1.000000     C
    C   1.0     0.113004     0.414462     0.551597  Biso 1.000000     C
    C   1.0     0.612986     0.414461     0.551599  Biso 1.000000     C
    C   1.0     0.285510     0.367295     0.385857  Biso 1.000000     C
    C   1.0     0.785508     0.367295     0.385857  Biso 1.000000     C
    C   1.0     0.261451     0.325550     0.341317  Biso 1.000000     C
    C   1.0     0.761447     0.325549     0.341317  Biso 1.000000     C
    C   1.0     0.339584     0.278090     0.328892  Biso 1.000000     C
    C   1.0     0.839582     0.278090     0.328892  Biso 1.000000     C
    C   1.0     0.436428     0.271606     0.361975  Biso 1.000000     C
    C   1.0     0.936424     0.271605     0.361976  Biso 1.000000     C
    C   1.0     0.454199     0.315081     0.405673  Biso 1.000000     C
    C   1.0     0.954196     0.315081     0.405673  Biso 1.000000     C
    C   1.0     0.221907     0.188253     0.276417  Biso 1.000000     C
    C   1.0     0.721898     0.188257     0.276415  Biso 1.000000     C
    C   1.0     0.211362     0.147340     0.226943  Biso 1.000000     C
    C   1.0     0.711362     0.147337     0.226944  Biso 1.000000     C
    C   1.0     0.296166     0.160222     0.185440  Biso 1.000000     C
    C   1.0     0.796165     0.160219     0.185441  Biso 1.000000     C
    C   1.0     0.395075     0.211980     0.191936  Biso 1.000000     C
    C   1.0     0.895075     0.211977     0.191937  Biso 1.000000     C
    C   1.0     0.414061     0.251540     0.241724  Biso 1.000000     C
    C   1.0     0.914052     0.251544     0.241723  Biso 1.000000     C
    C   1.0     0.116583     0.095404     0.221408  Biso 1.000000     C
    C   1.0     0.616581     0.095402     0.221409  Biso 1.000000     C
    C   1.0     0.101278     0.057554     0.174076  Biso 1.000000     C
    C   1.0     0.601272     0.057555     0.174075  Biso 1.000000     C
    C   1.0     0.179562     0.070773     0.131729  Biso 1.000000     C
    C   1.0     0.679556     0.070774     0.131728  Biso 1.000000     C
    C   1.0     0.282308     0.120826     0.137093  Biso 1.000000     C
    C   1.0     0.782303     0.120827     0.137092  Biso 1.000000     C
    C   1.0     0.372460     0.133827     0.097413  Biso 1.000000     C
    C   1.0     0.872455     0.133827     0.097414  Biso 1.000000     C
    C   1.0     0.465150     0.186971     0.104340  Biso 1.000000     C
    C   1.0     0.965146     0.186971     0.104340  Biso 1.000000     C
    C   1.0     0.476859     0.225891     0.151177  Biso 1.000000     C
    C   1.0     0.976859     0.225888     0.151178  Biso 1.000000     C
    C   1.0     0.138502     0.037374     0.079784  Biso 1.000000     C
    C   1.0     0.638510     0.037372     0.079782  Biso 1.000000     C
    C   1.0     0.388040     0.086024     0.051621  Biso 1.000000     C
    C   1.0     0.888048     0.086024     0.051623  Biso 1.000000     C
    N   1.0     0.382033     0.863292     0.083242  Biso 1.000000     N
    N   1.0     0.882030     0.863292     0.083242  Biso 1.000000     N
    N   1.0     0.323923     0.738062     0.219165  Biso 1.000000     N
    N   1.0     0.823917     0.738065     0.219166  Biso 1.000000     N
    N   1.0     0.118689     0.637142     0.582854  Biso 1.000000     N
    N   1.0     0.618685     0.637142     0.582854  Biso 1.000000     N
    N   1.0     0.175860     0.762214     0.719012  Biso 1.000000     N
    N   1.0     0.675861     0.762210     0.719014  Biso 1.000000     N
    N   1.0     0.117997     0.136705     0.916755  Biso 1.000000     N
    N   1.0     0.617994     0.136705     0.916755  Biso 1.000000     N
    N   1.0     0.176114     0.261929     0.780830  Biso 1.000000     N
    N   1.0     0.676103     0.261935     0.780833  Biso 1.000000     N
    N   1.0     0.381339     0.362854     0.417145  Biso 1.000000     N
    N   1.0     0.881335     0.362854     0.417145  Biso 1.000000     N
    N   1.0     0.324163     0.237787     0.280984  Biso 1.000000     N
    N   1.0     0.824166     0.237782     0.280986  Biso 1.000000     N
    O   1.0     0.145796     0.575817     0.460368  Biso 1.000000     O
    O   1.0     0.645794     0.575816     0.460369  Biso 1.000000     O
    O   1.0     0.086400     0.475249     0.416934  Biso 1.000000     O
    O   1.0     0.586399     0.475248     0.416934  Biso 1.000000     O
    O   1.0     0.369391     0.521188     0.437387  Biso 1.000000     O
    O   1.0     0.869389     0.521187     0.437386  Biso 1.000000     O
    O   1.0     0.429533     0.612494     0.491158  Biso 1.000000     O
    O   1.0     0.929532     0.612494     0.491157  Biso 1.000000     O
    O   1.0     0.148962     0.680785     0.186960  Biso 1.000000     O
    O   1.0     0.648959     0.680785     0.186960  Biso 1.000000     O
    O   1.0     0.000652     0.794753     0.250418  Biso 1.000000     O
    O   1.0     0.500649     0.794753     0.250418  Biso 1.000000     O
    O   1.0     0.353199     0.922835     0.960616  Biso 1.000000     O
    O   1.0     0.853194     0.922836     0.960616  Biso 1.000000     O
    O   1.0     0.411094     0.024389     0.918435  Biso 1.000000     O
    O   1.0     0.911088     0.024390     0.918435  Biso 1.000000     O
    O   1.0     0.129653     0.978396     0.937530  Biso 1.000000     O
    O   1.0     0.629648     0.978396     0.937529  Biso 1.000000     O
    O   1.0     0.069816     0.886768     0.991032  Biso 1.000000     O
    O   1.0     0.569809     0.886768     0.991031  Biso 1.000000     O
    O   1.0     0.350871     0.819605     0.687181  Biso 1.000000     O
    O   1.0     0.850868     0.819604     0.687181  Biso 1.000000     O
    O   1.0     0.499486     0.705037     0.750101  Biso 1.000000     O
    O   1.0     0.999482     0.705037     0.750101  Biso 1.000000     O
    O   1.0     0.354230     0.424180     0.539629  Biso 1.000000     O
    O   1.0     0.854230     0.424179     0.539629  Biso 1.000000     O
    O   1.0     0.413622     0.524749     0.583063  Biso 1.000000     O
    O   1.0     0.913624     0.524747     0.583064  Biso 1.000000     O
    O   1.0     0.130628     0.478805     0.562610  Biso 1.000000     O
    O   1.0     0.630628     0.478805     0.562609  Biso 1.000000     O
    O   1.0     0.070488     0.387496     0.508841  Biso 1.000000     O
    O   1.0     0.570490     0.387496     0.508839  Biso 1.000000     O
    O   1.0     0.351066     0.319214     0.813039  Biso 1.000000     O
    O   1.0     0.851062     0.319214     0.813039  Biso 1.000000     O
    O   1.0     0.499375     0.205245     0.749581  Biso 1.000000     O
    O   1.0     0.999373     0.205245     0.749581  Biso 1.000000     O
    O   1.0     0.146837     0.077162     0.039381  Biso 1.000000     O
    O   1.0     0.646832     0.077163     0.039381  Biso 1.000000     O
    O   1.0     0.088941     0.975607     0.081561  Biso 1.000000     O
    O   1.0     0.588933     0.975609     0.081562  Biso 1.000000     O
    O   1.0     0.370378     0.021601     0.062469  Biso 1.000000     O
    O   1.0     0.870371     0.021601     0.062468  Biso 1.000000     O
    O   1.0     0.430217     0.113229     0.008967  Biso 1.000000     O
    O   1.0     0.930209     0.113229     0.008965  Biso 1.000000     O
    O   1.0     0.149153     0.180396     0.312816  Biso 1.000000     O
    O   1.0     0.649151     0.180395     0.312816  Biso 1.000000     O
    O   1.0     0.000540     0.294963     0.249897  Biso 1.000000     O
    O   1.0     0.500535     0.294963     0.249897  Biso 1.000000     O
   Zn   1.0     0.054739     0.560688     0.530618  Biso 1.000000    Zn
   Zn   1.0     0.554735     0.560688     0.530618  Biso 1.000000    Zn
   Zn   1.0     0.445321     0.939227     0.030548  Biso 1.000000    Zn
   Zn   1.0     0.945318     0.939227     0.030548  Biso 1.000000    Zn
   Zn   1.0     0.445289     0.439309     0.469381  Biso 1.000000    Zn
   Zn   1.0     0.945285     0.439308     0.469380  Biso 1.000000    Zn
   Zn   1.0     0.054707     0.060772     0.969450  Biso 1.000000    Zn
   Zn   1.0     0.554705     0.060772     0.969450  Biso 1.000000    Zn
