#======================================================================

# CRYSTAL DATA

#----------------------------------------------------------------------

data_VESTA_phase_1


_pd_phase_name                         MOF
_cell_length_a                         11.34700
_cell_length_b                         20.13500
_cell_length_c                         24.81700
_cell_angle_alpha                      89.98100
_cell_angle_beta                       89.95400
_cell_angle_gamma                      96.21100
_symmetry_space_group_name_H-M         "P 1"
_symmetry_Int_Tables_number            1

loop_
_symmetry_equiv_pos_as_xyz
   "x, y, z"

loop_
   _atom_site_label
   _atom_site_occupancy
   _atom_site_fract_x
   _atom_site_fract_y
   _atom_site_fract_z
   _atom_site_adp_type
   _atom_site_B_iso_or_equiv
   _atom_site_type_symbol
    H   1.0     0.234237     0.916715     0.109936  Biso 1.000000     H
    H   1.0     0.734218     0.916715     0.109936  Biso 1.000000     H
    H   1.0     0.188545     0.843999     0.191245  Biso 1.000000     H
    H   1.0     0.688526     0.843999     0.191245  Biso 1.000000     H
    H   1.0     0.503324     0.748725     0.155984  Biso 1.000000     H
    H   1.0     0.000000     0.748725     0.155984  Biso 1.000000     H
    H   1.0     0.036020     0.824602     0.075845  Biso 1.000000     H
    H   1.0     0.536001     0.824602     0.075845  Biso 1.000000     H
    H   1.0     0.056106     0.604906     0.247865  Biso 1.000000     H
    H   1.0     0.556089     0.604905     0.247864  Biso 1.000000     H
    H   1.0     0.026032     0.534018     0.331013  Biso 1.000000     H
    H   1.0     0.526014     0.534018     0.331013  Biso 1.000000     H
    H   1.0     0.027637     0.695223     0.436600  Biso 1.000000     H
    H   1.0     0.527619     0.695222     0.436600  Biso 1.000000     H
    H   1.0     0.047509     0.769677     0.355178  Biso 1.000000     H
    H   1.0     0.547490     0.769676     0.355178  Biso 1.000000     H
    H   1.0     0.264657     0.581683     0.610608  Biso 1.000000     H
    H   1.0     0.764638     0.581683     0.610608  Biso 1.000000     H
    H   1.0     0.310215     0.653630     0.692314  Biso 1.000000     H
    H   1.0     0.810196     0.653629     0.692314  Biso 1.000000     H
    H   1.0    -0.004190     0.749445     0.657677  Biso 1.000000     H
    H   1.0     0.495792     0.749445     0.657677  Biso 1.000000     H
    H   1.0     0.463170     0.674287     0.577184  Biso 1.000000     H
    H   1.0     0.963150     0.674287     0.577184  Biso 1.000000     H
    H   1.0     0.443751     0.893262     0.747376  Biso 1.000000     H
    H   1.0     0.943733     0.893262     0.747376  Biso 1.000000     H
    H   1.0     0.474409     0.965263     0.829835  Biso 1.000000     H
    H   1.0     0.974391     0.965263     0.829835  Biso 1.000000     H
    H   1.0     0.473023     0.805778     0.937486  Biso 1.000000     H
    H   1.0     0.973003     0.805778     0.937485  Biso 1.000000     H
    H   1.0     0.452859     0.730095     0.856898  Biso 1.000000     H
    H   1.0     0.952839     0.730096     0.856898  Biso 1.000000     H
    H   1.0     0.265734     0.083270     0.890071  Biso 1.000000     H
    H   1.0     0.765715     0.083270     0.890071  Biso 1.000000     H
    H   1.0     0.311425     0.155985     0.808762  Biso 1.000000     H
    H   1.0     0.811407     0.155986     0.808762  Biso 1.000000     H
    H   1.0    -0.003353     0.251260     0.844023  Biso 1.000000     H
    H   1.0     0.496627     0.251260     0.844023  Biso 1.000000     H
    H   1.0     0.463950     0.175383     0.924162  Biso 1.000000     H
    H   1.0     0.963932     0.175383     0.924162  Biso 1.000000     H
    H   1.0     0.443863     0.395079     0.752142  Biso 1.000000     H
    H   1.0     0.943844     0.395079     0.752142  Biso 1.000000     H
    H   1.0     0.473937     0.465967     0.668994  Biso 1.000000     H
    H   1.0     0.973919     0.465967     0.668994  Biso 1.000000     H
    H   1.0     0.472332     0.304762     0.563407  Biso 1.000000     H
    H   1.0     0.972314     0.304761     0.563406  Biso 1.000000     H
    H   1.0     0.452461     0.230308     0.644829  Biso 1.000000     H
    H   1.0     0.952443     0.230308     0.644829  Biso 1.000000     H
    H   1.0     0.235313     0.418302     0.389399  Biso 1.000000     H
    H   1.0     0.735294     0.418302     0.389399  Biso 1.000000     H
    H   1.0     0.189756     0.346356     0.307693  Biso 1.000000     H
    H   1.0     0.689737     0.346356     0.307693  Biso 1.000000     H
    H   1.0     0.504160     0.250540     0.342330  Biso 1.000000     H
    H   1.0     0.000000     0.250541     0.342330  Biso 1.000000     H
    H   1.0     0.036801     0.325698     0.422823  Biso 1.000000     H
    H   1.0     0.536782     0.325698     0.422823  Biso 1.000000     H
    H   1.0     0.056220     0.106723     0.252631  Biso 1.000000     H
    H   1.0     0.556201     0.106722     0.252631  Biso 1.000000     H
    H   1.0     0.025562     0.034722     0.170172  Biso 1.000000     H
    H   1.0     0.525543     0.034722     0.170172  Biso 1.000000     H
    H   1.0     0.026948     0.194208     0.062521  Biso 1.000000     H
    H   1.0     0.526929     0.194208     0.062521  Biso 1.000000     H
    H   1.0     0.047111     0.269890     0.143108  Biso 1.000000     H
    H   1.0     0.547092     0.269890     0.143108  Biso 1.000000     H
    C   1.0     0.291152     0.878719     0.121412  Biso 1.000000     C
    C   1.0     0.791133     0.878719     0.121412  Biso 1.000000     C
    C   1.0     0.266058     0.838338     0.166429  Biso 1.000000     C
    C   1.0     0.766039     0.838338     0.166429  Biso 1.000000     C
    C   1.0     0.343573     0.791574     0.179486  Biso 1.000000     C
    C   1.0     0.843554     0.791574     0.179486  Biso 1.000000     C
    C   1.0     0.441369     0.784832     0.146687  Biso 1.000000     C
    C   1.0     0.941350     0.784832     0.146688  Biso 1.000000     C
    C   1.0     0.460234     0.826903     0.102510  Biso 1.000000     C
    C   1.0     0.960215     0.826903     0.102510  Biso 1.000000     C
    C   1.0     0.224620     0.703458     0.229471  Biso 1.000000     C
    C   1.0     0.724600     0.703458     0.229471  Biso 1.000000     C
    C   1.0     0.212346     0.661350     0.278205  Biso 1.000000     C
    C   1.0     0.712327     0.661349     0.278204  Biso 1.000000     C
    C   1.0     0.295431     0.670537     0.321045  Biso 1.000000     C
    C   1.0     0.795412     0.670538     0.321046  Biso 1.000000     C
    C   1.0     0.393376     0.720565     0.316967  Biso 1.000000     C
    C   1.0     0.893357     0.720565     0.316967  Biso 1.000000     C
    C   1.0     0.413659     0.761742     0.268045  Biso 1.000000     C
    C   1.0     0.913639     0.761742     0.268046  Biso 1.000000     C
    C   1.0     0.118233     0.611417     0.281366  Biso 1.000000     C
    C   1.0     0.618214     0.611417     0.281366  Biso 1.000000     C
    C   1.0     0.102288     0.571560     0.327582  Biso 1.000000     C
    C   1.0     0.602270     0.571560     0.327582  Biso 1.000000     C
    C   1.0     0.179608     0.580497     0.371064  Biso 1.000000     C
    C   1.0     0.679590     0.580496     0.371064  Biso 1.000000     C
    C   1.0     0.281121     0.628932     0.368162  Biso 1.000000     C
    C   1.0     0.781101     0.628932     0.368162  Biso 1.000000     C
    C   1.0     0.370029     0.638008     0.409022  Biso 1.000000     C
    C   1.0     0.870011     0.638008     0.409022  Biso 1.000000     C
    C   1.0     0.461347     0.689694     0.404758  Biso 1.000000     C
    C   1.0     0.961327     0.689695     0.404759  Biso 1.000000     C
    C   1.0     0.473363     0.730827     0.359159  Biso 1.000000     C
    C   1.0     0.973343     0.730827     0.359159  Biso 1.000000     C
    C   1.0     0.138676     0.543534     0.421704  Biso 1.000000     C
    C   1.0     0.638657     0.543534     0.421704  Biso 1.000000     C
    C   1.0     0.386080     0.587613     0.452574  Biso 1.000000     C
    C   1.0     0.886060     0.587613     0.452574  Biso 1.000000     C
    C   1.0     0.207731     0.619561     0.622366  Biso 1.000000     C
    C   1.0     0.707711     0.619560     0.622367  Biso 1.000000     C
    C   1.0     0.232750     0.659515     0.667586  Biso 1.000000     C
    C   1.0     0.732732     0.659516     0.667586  Biso 1.000000     C
    C   1.0     0.155441     0.706308     0.680856  Biso 1.000000     C
    C   1.0     0.655420     0.706307     0.680856  Biso 1.000000     C
    C   1.0     0.057644     0.713326     0.648207  Biso 1.000000     C
    C   1.0     0.557626     0.713327     0.648207  Biso 1.000000     C
    C   1.0     0.038813     0.671662     0.603822  Biso 1.000000     C
    C   1.0     0.538794     0.671661     0.603823  Biso 1.000000     C
    C   1.0     0.275043     0.794544     0.730135  Biso 1.000000     C
    C   1.0     0.775023     0.794545     0.730135  Biso 1.000000     C
    C   1.0     0.287683     0.837260     0.778476  Biso 1.000000     C
    C   1.0     0.787666     0.837259     0.778477  Biso 1.000000     C
    C   1.0     0.204809     0.828693     0.821508  Biso 1.000000     C
    C   1.0     0.704788     0.828695     0.821507  Biso 1.000000     C
    C   1.0     0.106876     0.778581     0.818041  Biso 1.000000     C
    C   1.0     0.606858     0.778580     0.818041  Biso 1.000000     C
    C   1.0     0.086477     0.736558     0.769608  Biso 1.000000     C
    C   1.0     0.586458     0.736558     0.769608  Biso 1.000000     C
    C   1.0     0.381846     0.887216     0.781034  Biso 1.000000     C
    C   1.0     0.881826     0.887217     0.781034  Biso 1.000000     C
    C   1.0     0.398108     0.927695     0.826853  Biso 1.000000     C
    C   1.0     0.898089     0.927695     0.826853  Biso 1.000000     C
    C   1.0     0.321041     0.919388     0.870528  Biso 1.000000     C
    C   1.0     0.821023     0.919387     0.870528  Biso 1.000000     C
    C   1.0     0.219392     0.870991     0.868201  Biso 1.000000     C
    C   1.0     0.719373     0.870991     0.868201  Biso 1.000000     C
    C   1.0     0.130674     0.862509     0.909257  Biso 1.000000     C
    C   1.0     0.630656     0.862508     0.909258  Biso 1.000000     C
    C   1.0     0.039234     0.810822     0.905549  Biso 1.000000     C
    C   1.0     0.539215     0.810823     0.905549  Biso 1.000000     C
    C   1.0     0.027036     0.768991     0.860403  Biso 1.000000     C
    C   1.0     0.527017     0.768992     0.860403  Biso 1.000000     C
    C   1.0     0.362389     0.956925     0.920817  Biso 1.000000     C
    C   1.0     0.862369     0.956925     0.920817  Biso 1.000000     C
    C   1.0     0.114895     0.913290     0.952536  Biso 1.000000     C
    C   1.0     0.614875     0.913290     0.952536  Biso 1.000000     C
    C   1.0     0.208818     0.121266     0.878594  Biso 1.000000     C
    C   1.0     0.708800     0.121266     0.878595  Biso 1.000000     C
    C   1.0     0.233913     0.161648     0.833578  Biso 1.000000     C
    C   1.0     0.733894     0.161648     0.833578  Biso 1.000000     C
    C   1.0     0.156397     0.208411     0.820521  Biso 1.000000     C
    C   1.0     0.656378     0.208411     0.820521  Biso 1.000000     C
    C   1.0     0.058602     0.215154     0.853319  Biso 1.000000     C
    C   1.0     0.558583     0.215153     0.853319  Biso 1.000000     C
    C   1.0     0.039737     0.173082     0.897497  Biso 1.000000     C
    C   1.0     0.539717     0.173082     0.897497  Biso 1.000000     C
    C   1.0     0.275350     0.296527     0.770536  Biso 1.000000     C
    C   1.0     0.775332     0.296527     0.770536  Biso 1.000000     C
    C   1.0     0.287625     0.338635     0.721802  Biso 1.000000     C
    C   1.0     0.787606     0.338635     0.721802  Biso 1.000000     C
    C   1.0     0.204540     0.329447     0.678961  Biso 1.000000     C
    C   1.0     0.704521     0.329447     0.678961  Biso 1.000000     C
    C   1.0     0.106594     0.279420     0.683040  Biso 1.000000     C
    C   1.0     0.606574     0.279421     0.683040  Biso 1.000000     C
    C   1.0     0.086313     0.238243     0.731961  Biso 1.000000     C
    C   1.0     0.586294     0.238243     0.731961  Biso 1.000000     C
    C   1.0     0.381737     0.388569     0.718641  Biso 1.000000     C
    C   1.0     0.881718     0.388568     0.718641  Biso 1.000000     C
    C   1.0     0.397681     0.428425     0.672425  Biso 1.000000     C
    C   1.0     0.897663     0.428424     0.672425  Biso 1.000000     C
    C   1.0     0.320361     0.419489     0.628943  Biso 1.000000     C
    C   1.0     0.820341     0.419489     0.628943  Biso 1.000000     C
    C   1.0     0.218850     0.371053     0.631845  Biso 1.000000     C
    C   1.0     0.718831     0.371052     0.631845  Biso 1.000000     C
    C   1.0     0.129941     0.361976     0.590985  Biso 1.000000     C
    C   1.0     0.629921     0.361976     0.590985  Biso 1.000000     C
    C   1.0     0.038623     0.310290     0.595249  Biso 1.000000     C
    C   1.0     0.538604     0.310290     0.595249  Biso 1.000000     C
    C   1.0     0.026609     0.269157     0.640847  Biso 1.000000     C
    C   1.0     0.526590     0.269157     0.640847  Biso 1.000000     C
    C   1.0     0.361294     0.456451     0.578303  Biso 1.000000     C
    C   1.0     0.861276     0.456451     0.578303  Biso 1.000000     C
    C   1.0     0.113890     0.412371     0.547432  Biso 1.000000     C
    C   1.0     0.613872     0.412371     0.547432  Biso 1.000000     C
    C   1.0     0.292240     0.380424     0.377641  Biso 1.000000     C
    C   1.0     0.792221     0.380424     0.377641  Biso 1.000000     C
    C   1.0     0.267221     0.340471     0.332421  Biso 1.000000     C
    C   1.0     0.767201     0.340470     0.332421  Biso 1.000000     C
    C   1.0     0.344530     0.293677     0.319151  Biso 1.000000     C
    C   1.0     0.844511     0.293677     0.319151  Biso 1.000000     C
    C   1.0     0.442327     0.286659     0.351800  Biso 1.000000     C
    C   1.0     0.942308     0.286659     0.351800  Biso 1.000000     C
    C   1.0     0.461157     0.328323     0.396185  Biso 1.000000     C
    C   1.0     0.961138     0.328323     0.396184  Biso 1.000000     C
    C   1.0     0.224927     0.205442     0.269871  Biso 1.000000     C
    C   1.0     0.724909     0.205442     0.269872  Biso 1.000000     C
    C   1.0     0.212289     0.162725     0.221531  Biso 1.000000     C
    C   1.0     0.712271     0.162725     0.221531  Biso 1.000000     C
    C   1.0     0.295164     0.171291     0.178500  Biso 1.000000     C
    C   1.0     0.795144     0.171291     0.178499  Biso 1.000000     C
    C   1.0     0.393092     0.221407     0.181965  Biso 1.000000     C
    C   1.0     0.893072     0.221407     0.181965  Biso 1.000000     C
    C   1.0     0.413495     0.263427     0.230399  Biso 1.000000     C
    C   1.0     0.913476     0.263426     0.230399  Biso 1.000000     C
    C   1.0     0.118125     0.112770     0.218972  Biso 1.000000     C
    C   1.0     0.618105     0.112771     0.218972  Biso 1.000000     C
    C   1.0     0.101864     0.072290     0.173154  Biso 1.000000     C
    C   1.0     0.601846     0.072289     0.173154  Biso 1.000000     C
    C   1.0     0.178929     0.080599     0.129479  Biso 1.000000     C
    C   1.0     0.678909     0.080599     0.129478  Biso 1.000000     C
    C   1.0     0.280578     0.128994     0.131806  Biso 1.000000     C
    C   1.0     0.780560     0.128993     0.131806  Biso 1.000000     C
    C   1.0     0.369296     0.137477     0.090749  Biso 1.000000     C
    C   1.0     0.869276     0.137477     0.090749  Biso 1.000000     C
    C   1.0     0.460735     0.189163     0.094457  Biso 1.000000     C
    C   1.0     0.960717     0.189163     0.094457  Biso 1.000000     C
    C   1.0     0.472937     0.230992     0.139605  Biso 1.000000     C
    C   1.0     0.972917     0.230993     0.139604  Biso 1.000000     C
    C   1.0     0.137583     0.043061     0.079190  Biso 1.000000     C
    C   1.0     0.637565     0.043060     0.079190  Biso 1.000000     C
    C   1.0     0.385077     0.086696     0.047471  Biso 1.000000     C
    C   1.0     0.885058     0.086696     0.047471  Biso 1.000000     C
    N   1.0     0.387493     0.873607     0.090257  Biso 1.000000     N
    N   1.0     0.887474     0.873607     0.090258  Biso 1.000000     N
    N   1.0     0.325658     0.751311     0.227283  Biso 1.000000     N
    N   1.0     0.825639     0.751311     0.227283  Biso 1.000000     N
    N   1.0     0.111585     0.625085     0.591255  Biso 1.000000     N
    N   1.0     0.611567     0.625085     0.591255  Biso 1.000000     N
    N   1.0     0.173967     0.746676     0.728531  Biso 1.000000     N
    N   1.0     0.673948     0.746676     0.728531  Biso 1.000000     N
    N   1.0     0.112478     0.126378     0.909750  Biso 1.000000     N
    N   1.0     0.612459     0.126378     0.909749  Biso 1.000000     N
    N   1.0     0.174313     0.248673     0.772724  Biso 1.000000     N
    N   1.0     0.674293     0.248674     0.772724  Biso 1.000000     N
    N   1.0     0.388385     0.374900     0.408752  Biso 1.000000     N
    N   1.0     0.888366     0.374900     0.408752  Biso 1.000000     N
    N   1.0     0.326004     0.253309     0.271476  Biso 1.000000     N
    N   1.0     0.825984     0.253309     0.271475  Biso 1.000000     N
    O   1.0     0.144996     0.577715     0.465045  Biso 1.000000     O
    O   1.0     0.644977     0.577715     0.465045  Biso 1.000000     O
    O   1.0     0.091049     0.484150     0.415958  Biso 1.000000     O
    O   1.0     0.591030     0.484150     0.415958  Biso 1.000000     O
    O   1.0     0.370905     0.526564     0.437673  Biso 1.000000     O
    O   1.0     0.870887     0.526564     0.437673  Biso 1.000000     O
    O   1.0     0.426218     0.609668     0.497404  Biso 1.000000     O
    O   1.0     0.926199     0.609668     0.497404  Biso 1.000000     O
    O   1.0     0.154448     0.697649     0.191587  Biso 1.000000     O
    O   1.0     0.654430     0.697649     0.191587  Biso 1.000000     O
    O   1.0     0.499970     0.803407     0.261646  Biso 1.000000     O
    O   1.0     0.999951     0.803407     0.261646  Biso 1.000000     O
    O   1.0     0.356066     0.923138     0.964398  Biso 1.000000     O
    O   1.0     0.856047     0.923138     0.964398  Biso 1.000000     O
    O   1.0     0.410242     0.016188     0.914510  Biso 1.000000     O
    O   1.0     0.910223     0.016189     0.914510  Biso 1.000000     O
    O   1.0     0.130000     0.974253     0.937426  Biso 1.000000     O
    O   1.0     0.629981     0.974254     0.937426  Biso 1.000000     O
    O   1.0     0.074907     0.891529     0.997538  Biso 1.000000     O
    O   1.0     0.574888     0.891529     0.997538  Biso 1.000000     O
    O   1.0     0.344923     0.799867     0.692060  Biso 1.000000     O
    O   1.0     0.844904     0.799867     0.692060  Biso 1.000000     O
    O   1.0     0.000464     0.694539     0.763845  Biso 1.000000     O
    O   1.0     0.500445     0.694539     0.763845  Biso 1.000000     O
    O   1.0     0.354975     0.422271     0.534962  Biso 1.000000     O
    O   1.0     0.854955     0.422271     0.534962  Biso 1.000000     O
    O   1.0     0.408922     0.515835     0.584049  Biso 1.000000     O
    O   1.0     0.908903     0.515835     0.584049  Biso 1.000000     O
    O   1.0     0.129064     0.473420     0.562333  Biso 1.000000     O
    O   1.0     0.629045     0.473420     0.562333  Biso 1.000000     O
    O   1.0     0.073752     0.390316     0.502602  Biso 1.000000     O
    O   1.0     0.573733     0.390316     0.502602  Biso 1.000000     O
    O   1.0     0.345522     0.302336     0.808419  Biso 1.000000     O
    O   1.0     0.845503     0.302336     0.808419  Biso 1.000000     O
    O   1.0     0.000001     0.196578     0.738360  Biso 1.000000     O
    O   1.0     0.499982     0.196578     0.738361  Biso 1.000000     O
    O   1.0     0.143905     0.076848     0.035609  Biso 1.000000     O
    O   1.0     0.643886     0.076848     0.035609  Biso 1.000000     O
    O   1.0     0.089729     0.983797     0.085497  Biso 1.000000     O
    O   1.0     0.589709     0.983797     0.085497  Biso 1.000000     O
    O   1.0     0.369971     0.025732     0.062581  Biso 1.000000     O
    O   1.0     0.869952     0.025732     0.062580  Biso 1.000000     O
    O   1.0     0.425065     0.108457     0.002469  Biso 1.000000     O
    O   1.0     0.925045     0.108457     0.002469  Biso 1.000000     O
    O   1.0     0.155048     0.200119     0.307947  Biso 1.000000     O
    O   1.0     0.655029     0.200119     0.307947  Biso 1.000000     O
    O   1.0     0.499507     0.305447     0.236162  Biso 1.000000     O
    O   1.0     0.999488     0.305447     0.236162  Biso 1.000000     O
   Zn   1.0     0.050677     0.555370     0.534842  Biso 1.000000    Zn
   Zn   1.0     0.550658     0.555370     0.534842  Biso 1.000000    Zn
   Zn   1.0     0.449337     0.944580     0.034864  Biso 1.000000    Zn
   Zn   1.0     0.949318     0.944580     0.034864  Biso 1.000000    Zn
   Zn   1.0     0.449294     0.444615     0.465165  Biso 1.000000    Zn
   Zn   1.0     0.949275     0.444615     0.465165  Biso 1.000000    Zn
   Zn   1.0     0.050634     0.055405     0.965143  Biso 1.000000    Zn
   Zn   1.0     0.550615     0.055405     0.965143  Biso 1.000000    Zn
