#======================================================================

# CRYSTAL DATA

#----------------------------------------------------------------------

data_VESTA_phase_1


_pd_phase_name                         MOF
_cell_length_a                         23.61400
_cell_length_b                         15.14300
_cell_length_c                         15.15100
_cell_angle_alpha                      97.64900
_cell_angle_beta                       107.23200
_cell_angle_gamma                      107.12900
_symmetry_space_group_name_H-M         "P 1"
_symmetry_Int_Tables_number            1

loop_
_symmetry_equiv_pos_as_xyz
   "x, y, z"

loop_
   _atom_site_label
   _atom_site_occupancy
   _atom_site_fract_x
   _atom_site_fract_y
   _atom_site_fract_z
   _atom_site_adp_type
   _atom_site_B_iso_or_equiv
   _atom_site_type_symbol
    H   1.0     0.036685     0.724730     0.522149  Biso 1.000000     H
    H   1.0     0.536866     0.724693     0.522346  Biso 1.000000     H
    H   1.0     0.149777     0.782073     0.538009  Biso 1.000000     H
    H   1.0     0.649933     0.782223     0.538118  Biso 1.000000     H
    H   1.0     0.159878     0.066593     0.648611  Biso 1.000000     H
    H   1.0     0.659823     0.066644     0.648615  Biso 1.000000     H
    H   1.0     0.044350     0.996316     0.626417  Biso 1.000000     H
    H   1.0     0.544337     0.996188     0.626535  Biso 1.000000     H
    H   1.0     0.245313     0.836638     0.562679  Biso 1.000000     H
    H   1.0     0.745524     0.836923     0.563078  Biso 1.000000     H
    H   1.0     0.409671     0.087831     0.649290  Biso 1.000000     H
    H   1.0     0.909719     0.088317     0.649440  Biso 1.000000     H
    H   1.0     0.482248     0.390807     0.851291  Biso 1.000000     H
    H   1.0     0.982346     0.391025     0.851330  Biso 1.000000     H
    H   1.0     0.439690     0.213881     0.793655  Biso 1.000000     H
    H   1.0     0.939707     0.214149     0.793553  Biso 1.000000     H
    H   1.0     0.268823     0.237215     0.608329  Biso 1.000000     H
    H   1.0     0.768815     0.237737     0.608585  Biso 1.000000     H
    H   1.0     0.320099     0.414874     0.671587  Biso 1.000000     H
    H   1.0     0.820136     0.415353     0.672081  Biso 1.000000     H
    H   1.0     0.036456     0.522169     0.724743  Biso 1.000000     H
    H   1.0     0.536443     0.522055     0.724391  Biso 1.000000     H
    H   1.0     0.149573     0.537886     0.782115  Biso 1.000000     H
    H   1.0     0.649566     0.537863     0.781904  Biso 1.000000     H
    H   1.0     0.159924     0.648693     0.066615  Biso 1.000000     H
    H   1.0     0.659701     0.648464     0.066323  Biso 1.000000     H
    H   1.0     0.044354     0.626639     0.996298  Biso 1.000000     H
    H   1.0     0.544132     0.626317     0.995883  Biso 1.000000     H
    H   1.0     0.245140     0.562722     0.836613  Biso 1.000000     H
    H   1.0     0.745300     0.563113     0.836616  Biso 1.000000     H
    H   1.0     0.409739     0.649258     0.087755  Biso 1.000000     H
    H   1.0     0.909715     0.649866     0.088069  Biso 1.000000     H
    H   1.0     0.482565     0.851167     0.390751  Biso 1.000000     H
    H   1.0     0.982303     0.851498     0.390794  Biso 1.000000     H
    H   1.0     0.439885     0.793335     0.213854  Biso 1.000000     H
    H   1.0     0.939566     0.793729     0.213908  Biso 1.000000     H
    H   1.0     0.269066     0.608710     0.237227  Biso 1.000000     H
    H   1.0     0.768931     0.608647     0.237399  Biso 1.000000     H
    H   1.0     0.320445     0.672183     0.414878  Biso 1.000000     H
    H   1.0     0.820359     0.672103     0.415030  Biso 1.000000     H
    H   1.0     0.463510     0.477862     0.275897  Biso 1.000000     H
    H   1.0     0.963434     0.477794     0.274917  Biso 1.000000     H
    H   1.0     0.350391     0.462018     0.218193  Biso 1.000000     H
    H   1.0     0.850310     0.462064     0.217681  Biso 1.000000     H
    H   1.0     0.340485     0.351495     0.933890  Biso 1.000000     H
    H   1.0     0.839805     0.351220     0.933102  Biso 1.000000     H
    H   1.0     0.456050     0.373669     0.004532  Biso 1.000000     H
    H   1.0     0.955382     0.373292     0.003271  Biso 1.000000     H
    H   1.0     0.254699     0.436751     0.163374  Biso 1.000000     H
    H   1.0     0.754694     0.437167     0.163264  Biso 1.000000     H
    H   1.0     0.090397     0.350257     0.911798  Biso 1.000000     H
    H   1.0     0.590009     0.350389     0.912210  Biso 1.000000     H
    H   1.0     0.017756     0.148895     0.609099  Biso 1.000000     H
    H   1.0     0.517243     0.148225     0.609236  Biso 1.000000     H
    H   1.0     0.060546     0.206455     0.786004  Biso 1.000000     H
    H   1.0     0.559903     0.206237     0.786114  Biso 1.000000     H
    H   1.0     0.231219     0.391501     0.762569  Biso 1.000000     H
    H   1.0     0.730630     0.391000     0.762623  Biso 1.000000     H
    H   1.0     0.179747     0.328233     0.584931  Biso 1.000000     H
    H   1.0     0.679265     0.327355     0.584986  Biso 1.000000     H
    H   1.0     0.463043     0.274927     0.477634  Biso 1.000000     H
    H   1.0     0.963264     0.275481     0.477791  Biso 1.000000     H
    H   1.0     0.349971     0.217568     0.461888  Biso 1.000000     H
    H   1.0     0.850181     0.217976     0.461950  Biso 1.000000     H
    H   1.0     0.339872     0.933047     0.351296  Biso 1.000000     H
    H   1.0     0.840257     0.933559     0.351360  Biso 1.000000     H
    H   1.0     0.455364     0.003322     0.373363  Biso 1.000000     H
    H   1.0     0.955775     0.004004     0.373534  Biso 1.000000     H
    H   1.0     0.254351     0.162976     0.436941  Biso 1.000000     H
    H   1.0     0.754668     0.163315     0.437241  Biso 1.000000     H
    H   1.0     0.090045     0.911708     0.350359  Biso 1.000000     H
    H   1.0     0.590405     0.912011     0.350774  Biso 1.000000     H
    H   1.0     0.017463     0.608969     0.148198  Biso 1.000000     H
    H   1.0     0.517844     0.609008     0.149102  Biso 1.000000     H
    H   1.0     0.060051     0.785828     0.206180  Biso 1.000000     H
    H   1.0     0.560407     0.785954     0.206529  Biso 1.000000     H
    H   1.0     0.230912     0.762182     0.391170  Biso 1.000000     H
    H   1.0     0.731340     0.762780     0.391843  Biso 1.000000     H
    H   1.0     0.179631     0.584577     0.327495  Biso 1.000000     H
    H   1.0     0.680075     0.585106     0.328750  Biso 1.000000     H
    C   1.0     0.065744     0.800123     0.549496  Biso 1.000000     C
    C   1.0     0.565872     0.800110     0.549665  Biso 1.000000     C
    C   1.0     0.129198     0.833102     0.559245  Biso 1.000000     C
    C   1.0     0.629320     0.833198     0.559370  Biso 1.000000     C
    C   1.0     0.165064     0.930709     0.595774  Biso 1.000000     C
    C   1.0     0.665128     0.930832     0.595846  Biso 1.000000     C
    C   1.0     0.133867     0.990536     0.620468  Biso 1.000000     C
    C   1.0     0.633871     0.990566     0.620533  Biso 1.000000     C
    C   1.0     0.070210     0.952192     0.608264  Biso 1.000000     C
    C   1.0     0.570226     0.952116     0.608379  Biso 1.000000     C
    C   1.0     0.233201     0.970955     0.608775  Biso 1.000000     C
    C   1.0     0.733269     0.971197     0.608858  Biso 1.000000     C
    C   1.0     0.266931     0.913614     0.588684  Biso 1.000000     C
    C   1.0     0.767083     0.913918     0.588941  Biso 1.000000     C
    C   1.0     0.330919     0.955633     0.602111  Biso 1.000000     C
    C   1.0     0.831068     0.956029     0.602389  Biso 1.000000     C
    C   1.0     0.359820     0.053823     0.638529  Biso 1.000000     C
    C   1.0     0.859872     0.054247     0.638669  Biso 1.000000     C
    C   1.0     0.323025     0.106386     0.657435  Biso 1.000000     C
    C   1.0     0.823014     0.106746     0.657467  Biso 1.000000     C
    C   1.0     0.435620     0.354194     0.796144  Biso 1.000000     C
    C   1.0     0.935683     0.354498     0.796246  Biso 1.000000     C
    C   1.0     0.411777     0.255667     0.763473  Biso 1.000000     C
    C   1.0     0.911790     0.255976     0.763490  Biso 1.000000     C
    C   1.0     0.350878     0.211096     0.694442  Biso 1.000000     C
    C   1.0     0.850862     0.211463     0.694517  Biso 1.000000     C
    C   1.0     0.316549     0.268880     0.661409  Biso 1.000000     C
    C   1.0     0.816550     0.269324     0.661654  Biso 1.000000     C
    C   1.0     0.344443     0.366994     0.696265  Biso 1.000000     C
    C   1.0     0.844487     0.367435     0.696623  Biso 1.000000     C
    C   1.0     0.367111     0.894980     0.577500  Biso 1.000000     C
    C   1.0     0.867409     0.895511     0.578026  Biso 1.000000     C
    C   1.0     0.065571     0.549503     0.800139  Biso 1.000000     C
    C   1.0     0.565511     0.549399     0.799807  Biso 1.000000     C
    C   1.0     0.129044     0.559203     0.833132  Biso 1.000000     C
    C   1.0     0.628994     0.559124     0.832885  Biso 1.000000     C
    C   1.0     0.164983     0.595727     0.930741  Biso 1.000000     C
    C   1.0     0.664889     0.595647     0.930510  Biso 1.000000     C
    C   1.0     0.133847     0.620536     0.990551  Biso 1.000000     C
    C   1.0     0.633670     0.620332     0.990245  Biso 1.000000     C
    C   1.0     0.070165     0.608379     0.952193  Biso 1.000000     C
    C   1.0     0.569988     0.608155     0.951806  Biso 1.000000     C
    C   1.0     0.233157     0.608744     0.970968  Biso 1.000000     C
    C   1.0     0.733086     0.608778     0.970876  Biso 1.000000     C
    C   1.0     0.266831     0.588679     0.913594  Biso 1.000000     C
    C   1.0     0.766900     0.588964     0.913618  Biso 1.000000     C
    C   1.0     0.330859     0.602129     0.955580  Biso 1.000000     C
    C   1.0     0.830968     0.602687     0.955754  Biso 1.000000     C
    C   1.0     0.359857     0.638503     0.053783  Biso 1.000000     C
    C   1.0     0.859813     0.638919     0.053988  Biso 1.000000     C
    C   1.0     0.323120     0.657411     0.106379  Biso 1.000000     C
    C   1.0     0.822949     0.657573     0.106461  Biso 1.000000     C
    C   1.0     0.435910     0.796134     0.354163  Biso 1.000000     C
    C   1.0     0.935672     0.796398     0.354238  Biso 1.000000     C
    C   1.0     0.412001     0.763347     0.255644  Biso 1.000000     C
    C   1.0     0.911734     0.763626     0.255718  Biso 1.000000     C
    C   1.0     0.351073     0.694467     0.211085  Biso 1.000000     C
    C   1.0     0.850845     0.694633     0.211177  Biso 1.000000     C
    C   1.0     0.316801     0.661685     0.268885  Biso 1.000000     C
    C   1.0     0.816637     0.661714     0.269013  Biso 1.000000     C
    C   1.0     0.344755     0.696652     0.366992  Biso 1.000000     C
    C   1.0     0.844619     0.696696     0.367124  Biso 1.000000     C
    C   1.0     0.367016     0.577598     0.894904  Biso 1.000000     C
    C   1.0     0.867359     0.578469     0.895326  Biso 1.000000     C
    C   1.0     0.452425     0.725131     0.725002  Biso 1.000000     C
    C   1.0     0.953004     0.725721     0.725451  Biso 1.000000     C
    C   1.0     0.434107     0.639808     0.639639  Biso 1.000000     C
    C   1.0     0.934550     0.640300     0.640115  Biso 1.000000     C
    C   1.0     0.434496     0.450522     0.200460  Biso 1.000000     C
    C   1.0     0.934284     0.450447     0.199537  Biso 1.000000     C
    C   1.0     0.371011     0.440780     0.167273  Biso 1.000000     C
    C   1.0     0.870808     0.440741     0.166621  Biso 1.000000     C
    C   1.0     0.335175     0.404267     0.069623  Biso 1.000000     C
    C   1.0     0.834824     0.404199     0.069030  Biso 1.000000     C
    C   1.0     0.366461     0.379615     0.009983  Biso 1.000000     C
    C   1.0     0.865920     0.379389     0.009155  Biso 1.000000     C
    C   1.0     0.430142     0.391805     0.048530  Biso 1.000000     C
    C   1.0     0.929607     0.391555     0.047438  Biso 1.000000     C
    C   1.0     0.266983     0.391154     0.029157  Biso 1.000000     C
    C   1.0     0.766638     0.391139     0.028875  Biso 1.000000     C
    C   1.0     0.233136     0.410953     0.086365  Biso 1.000000     C
    C   1.0     0.732981     0.411182     0.086287  Biso 1.000000     C
    C   1.0     0.169085     0.397298     0.044176  Biso 1.000000     C
    C   1.0     0.668934     0.397648     0.044343  Biso 1.000000     C
    C   1.0     0.140284     0.361142     0.945930  Biso 1.000000     C
    C   1.0     0.639906     0.361220     0.946147  Biso 1.000000     C
    C   1.0     0.177175     0.342485     0.893504  Biso 1.000000     C
    C   1.0     0.676629     0.342342     0.893514  Biso 1.000000     C
    C   1.0     0.064410     0.203930     0.645675  Biso 1.000000     C
    C   1.0     0.563871     0.203335     0.645791  Biso 1.000000     C
    C   1.0     0.088379     0.236586     0.744207  Biso 1.000000     C
    C   1.0     0.587767     0.236228     0.744301  Biso 1.000000     C
    C   1.0     0.149292     0.305514     0.788775  Biso 1.000000     C
    C   1.0     0.648664     0.305196     0.788819  Biso 1.000000     C
    C   1.0     0.183498     0.338472     0.730948  Biso 1.000000     C
    C   1.0     0.682913     0.337972     0.730990  Biso 1.000000     C
    C   1.0     0.155486     0.303600     0.632823  Biso 1.000000     C
    C   1.0     0.654974     0.302901     0.632897  Biso 1.000000     C
    C   1.0     0.132685     0.421550     0.104575  Biso 1.000000     C
    C   1.0     0.632780     0.422155     0.105039  Biso 1.000000     C
    C   1.0     0.433984     0.199534     0.450291  Biso 1.000000     C
    C   1.0     0.934247     0.200071     0.450449  Biso 1.000000     C
    C   1.0     0.370543     0.166539     0.440628  Biso 1.000000     C
    C   1.0     0.870797     0.167000     0.440715  Biso 1.000000     C
    C   1.0     0.334675     0.068931     0.404100  Biso 1.000000     C
    C   1.0     0.834980     0.069376     0.404186  Biso 1.000000     C
    C   1.0     0.365877     0.009107     0.379413  Biso 1.000000     C
    C   1.0     0.866226     0.009627     0.379499  Biso 1.000000     C
    C   1.0     0.429518     0.047466     0.391528  Biso 1.000000     C
    C   1.0     0.929877     0.048061     0.391685  Biso 1.000000     C
    C   1.0     0.266533     0.028658     0.391086  Biso 1.000000     C
    C   1.0     0.766850     0.029042     0.391205  Biso 1.000000     C
    C   1.0     0.232760     0.085986     0.411051  Biso 1.000000     C
    C   1.0     0.733085     0.086333     0.411274  Biso 1.000000     C
    C   1.0     0.168748     0.043942     0.397479  Biso 1.000000     C
    C   1.0     0.669105     0.044265     0.397865  Biso 1.000000     C
    C   1.0     0.139908     0.945726     0.361201  Biso 1.000000     C
    C   1.0     0.640248     0.946063     0.361515  Biso 1.000000     C
    C   1.0     0.176732     0.893179     0.342371  Biso 1.000000     C
    C   1.0     0.677077     0.893547     0.342636  Biso 1.000000     C
    C   1.0     0.064108     0.645479     0.203331  Biso 1.000000     C
    C   1.0     0.564491     0.645666     0.204185  Biso 1.000000     C
    C   1.0     0.087961     0.743986     0.236226  Biso 1.000000     C
    C   1.0     0.588337     0.744202     0.236745  Biso 1.000000     C
    C   1.0     0.148877     0.788476     0.305233  Biso 1.000000     C
    C   1.0     0.649254     0.788826     0.305718  Biso 1.000000     C
    C   1.0     0.183184     0.730604     0.338081  Biso 1.000000     C
    C   1.0     0.683604     0.731080     0.338795  Biso 1.000000     C
    C   1.0     0.155286     0.632509     0.302981  Biso 1.000000     C
    C   1.0     0.655710     0.632953     0.304036  Biso 1.000000     C
    C   1.0     0.132440     0.104503     0.421875  Biso 1.000000     C
    C   1.0     0.632902     0.104895     0.422485  Biso 1.000000     C
    C   1.0     0.046956     0.274415     0.274346  Biso 1.000000     C
    C   1.0     0.547527     0.274637     0.275128  Biso 1.000000     C
    C   1.0     0.065387     0.359915     0.359587  Biso 1.000000     C
    C   1.0     0.565789     0.359836     0.360585  Biso 1.000000     C
    N   1.0     0.036187     0.858388     0.573272  Biso 1.000000     N
    N   1.0     0.536258     0.858282     0.573455  Biso 1.000000     N
    N   1.0     0.260866     0.066325     0.641355  Biso 1.000000     N
    N   1.0     0.760851     0.066592     0.641344  Biso 1.000000     N
    N   1.0     0.403012     0.409614     0.762881  Biso 1.000000     N
    N   1.0     0.903087     0.410003     0.763179  Biso 1.000000     N
    N   1.0     0.036075     0.573396     0.858385  Biso 1.000000     N
    N   1.0     0.535938     0.573203     0.857974  Biso 1.000000     N
    N   1.0     0.260925     0.641312     0.066343  Biso 1.000000     N
    N   1.0     0.760732     0.641255     0.066283  Biso 1.000000     N
    N   1.0     0.403341     0.763149     0.409599  Biso 1.000000     N
    N   1.0     0.903179     0.763269     0.409718  Biso 1.000000     N
    N   1.0     0.464136     0.426757     0.142383  Biso 1.000000     N
    N   1.0     0.963740     0.426541     0.141232  Biso 1.000000     N
    N   1.0     0.239381     0.358743     0.933736  Biso 1.000000     N
    N   1.0     0.738839     0.358529     0.933510  Biso 1.000000     N
    N   1.0     0.096899     0.237104     0.590205  Biso 1.000000     N
    N   1.0     0.596421     0.236309     0.590329  Biso 1.000000     N
    N   1.0     0.463541     0.141276     0.426483  Biso 1.000000     N
    N   1.0     0.963853     0.141881     0.426680  Biso 1.000000     N
    N   1.0     0.238907     0.933277     0.358553  Biso 1.000000     N
    N   1.0     0.739229     0.933660     0.358684  Biso 1.000000     N
    N   1.0     0.096705     0.589966     0.236370  Biso 1.000000     N
    N   1.0     0.597116     0.590283     0.237495  Biso 1.000000     N
    O   1.0     0.338831     0.805738     0.549716  Biso 1.000000     O
    O   1.0     0.839278     0.806202     0.550508  Biso 1.000000     O
    O   1.0     0.424915     0.936756     0.586684  Biso 1.000000     O
    O   1.0     0.925158     0.937389     0.587092  Biso 1.000000     O
    O   1.0     0.459889     0.806442     0.707510  Biso 1.000000     O
    O   1.0     0.960451     0.806992     0.707859  Biso 1.000000     O
    O   1.0     0.427943     0.657448     0.558374  Biso 1.000000     O
    O   1.0     0.928236     0.657812     0.558773  Biso 1.000000     O
    O   1.0     0.338667     0.549901     0.805639  Biso 1.000000     O
    O   1.0     0.839222     0.550973     0.806002  Biso 1.000000     O
    O   1.0     0.424846     0.586747     0.936649  Biso 1.000000     O
    O   1.0     0.925157     0.587634     0.937291  Biso 1.000000     O
    O   1.0     0.459638     0.707503     0.806209  Biso 1.000000     O
    O   1.0     0.960358     0.708178     0.806712  Biso 1.000000     O
    O   1.0     0.427660     0.558413     0.657118  Biso 1.000000     O
    O   1.0     0.928154     0.558950     0.657685  Biso 1.000000     O
    O   1.0     0.160809     0.449083     0.193890  Biso 1.000000     O
    O   1.0     0.661150     0.449833     0.194317  Biso 1.000000     O
    O   1.0     0.074881     0.412370     0.062573  Biso 1.000000     O
    O   1.0     0.574961     0.413032     0.063344  Biso 1.000000     O
    O   1.0     0.039554     0.291846     0.193034  Biso 1.000000     O
    O   1.0     0.540352     0.292409     0.193985  Biso 1.000000     O
    O   1.0     0.071711     0.441194     0.341868  Biso 1.000000     O
    O   1.0     0.572390     0.441332     0.343302  Biso 1.000000     O
    O   1.0     0.160605     0.193814     0.449370  Biso 1.000000     O
    O   1.0     0.661177     0.194121     0.450347  Biso 1.000000     O
    O   1.0     0.074695     0.062685     0.412829  Biso 1.000000     O
    O   1.0     0.575079     0.063078     0.413220  Biso 1.000000     O
    O   1.0     0.039561     0.193197     0.292054  Biso 1.000000     O
    O   1.0     0.539979     0.193253     0.292461  Biso 1.000000     O
    O   1.0     0.071771     0.342549     0.440998  Biso 1.000000     O
    O   1.0     0.571843     0.342018     0.441758  Biso 1.000000     O
   Zn   1.0     0.440786     0.802472     0.563469  Biso 1.000000    Zn
   Zn   1.0     0.940790     0.802642     0.563653  Biso 1.000000    Zn
   Zn   1.0     0.440378     0.563400     0.802078  Biso 1.000000    Zn
   Zn   1.0     0.940659     0.563967     0.802514  Biso 1.000000    Zn
   Zn   1.0     0.059178     0.436007     0.197033  Biso 1.000000    Zn
   Zn   1.0     0.559736     0.436556     0.198390  Biso 1.000000    Zn
   Zn   1.0     0.059263     0.197731     0.436294  Biso 1.000000    Zn
   Zn   1.0     0.558966     0.196972     0.436436  Biso 1.000000    Zn
