#======================================================================

# CRYSTAL DATA

#----------------------------------------------------------------------

data_VESTA_phase_1


_pd_phase_name                         MOF
_cell_length_a                         14.71500
_cell_length_b                         15.75400
_cell_length_c                         16.95400
_cell_angle_alpha                      90.00400
_cell_angle_beta                       90.03400
_cell_angle_gamma                      90.00900
_symmetry_space_group_name_H-M         "P 1"
_symmetry_Int_Tables_number            1

loop_
_symmetry_equiv_pos_as_xyz
   "x, y, z"

loop_
   _atom_site_label
   _atom_site_occupancy
   _atom_site_fract_x
   _atom_site_fract_y
   _atom_site_fract_z
   _atom_site_adp_type
   _atom_site_B_iso_or_equiv
   _atom_site_type_symbol
    H   1.0     0.738424     0.711552     0.397670  Biso 1.000000     H
    H   1.0     0.799641     0.713635     0.224209  Biso 1.000000     H
    H   1.0     0.542582     0.514582     0.969351  Biso 1.000000     H
    H   1.0     0.567440     0.326059     0.927460  Biso 1.000000     H
    H   1.0     0.764997     0.322738     0.135478  Biso 1.000000     H
    H   1.0     0.911173     0.248071     0.217391  Biso 1.000000     H
    H   1.0     0.800102     0.449510     0.352513  Biso 1.000000     H
    H   1.0     0.000000     0.299176     0.335801  Biso 1.000000     H
    H   1.0     0.960525     0.385769     0.390665  Biso 1.000000     H
    H   1.0     0.904278     0.359261     0.521304  Biso 1.000000     H
    H   1.0     0.866495     0.259166     0.626559  Biso 1.000000     H
    H   1.0     0.865311     0.053886     0.458188  Biso 1.000000     H
    H   1.0     0.901836     0.155427     0.351572  Biso 1.000000     H
    H   1.0     0.839547     0.021058     0.590770  Biso 1.000000     H
    H   1.0     0.775035     0.098698     0.641212  Biso 1.000000     H
    H   1.0     0.000000     0.151328     0.843018  Biso 1.000000     H
    H   1.0     0.845582     0.178679     0.757054  Biso 1.000000     H
    H   1.0     0.011692    -0.000279     0.637878  Biso 1.000000     H
    H   1.0     0.973404     0.887400     0.429033  Biso 1.000000     H
    H   1.0     0.118393     0.956558     0.515659  Biso 1.000000     H
    H   1.0     0.072959     0.101899     0.308165  Biso 1.000000     H
    H   1.0     0.240804     0.067913     0.472818  Biso 1.000000     H
    H   1.0     0.220880     0.128381     0.387623  Biso 1.000000     H
    H   1.0     0.145132     0.101939     0.598224  Biso 1.000000     H
    H   1.0     0.099017     0.220830     0.683358  Biso 1.000000     H
    H   1.0     0.117081     0.391439     0.484957  Biso 1.000000     H
    H   1.0     0.159949     0.271883     0.399349  Biso 1.000000     H
    H   1.0     0.024315     0.374008     0.681935  Biso 1.000000     H
    H   1.0     0.064284     0.445470     0.609862  Biso 1.000000     H
    H   1.0     0.305479     0.387772     0.839521  Biso 1.000000     H
    H   1.0     0.138511     0.323244     0.792278  Biso 1.000000     H
    H   1.0     0.228865     0.507567     0.627250  Biso 1.000000     H
    H   1.0     0.238564     0.788877     0.602180  Biso 1.000000     H
    H   1.0     0.299413     0.786287     0.775790  Biso 1.000000     H
    H   1.0     0.042397     0.985414     0.030487  Biso 1.000000     H
    H   1.0     0.067641     0.173872     0.072552  Biso 1.000000     H
    H   1.0     0.265012     0.177393     0.864490  Biso 1.000000     H
    H   1.0     0.411155     0.252018     0.782613  Biso 1.000000     H
    H   1.0     0.299936     0.050483     0.647545  Biso 1.000000     H
    H   1.0     0.500097     0.200782     0.664264  Biso 1.000000     H
    H   1.0     0.460307     0.114189     0.609422  Biso 1.000000     H
    H   1.0     0.404471     0.140748     0.478648  Biso 1.000000     H
    H   1.0     0.366882     0.240839     0.373319  Biso 1.000000     H
    H   1.0     0.365112     0.446050     0.541752  Biso 1.000000     H
    H   1.0     0.401463     0.344514     0.648439  Biso 1.000000     H
    H   1.0     0.339794     0.478934     0.409119  Biso 1.000000     H
    H   1.0     0.275180     0.401349     0.358622  Biso 1.000000     H
    H   1.0     0.504223     0.348664     0.156950  Biso 1.000000     H
    H   1.0     0.345668     0.321240     0.242876  Biso 1.000000     H
    H   1.0     0.511859     0.500351     0.362047  Biso 1.000000     H
    H   1.0     0.473336     0.612720     0.570957  Biso 1.000000     H
    H   1.0     0.618220     0.543526     0.484384  Biso 1.000000     H
    H   1.0     0.572746     0.398087     0.691767  Biso 1.000000     H
    H   1.0     0.740596     0.432170     0.527316  Biso 1.000000     H
    H   1.0     0.720645     0.371665     0.612460  Biso 1.000000     H
    H   1.0     0.645262     0.398075     0.401708  Biso 1.000000     H
    H   1.0     0.599349     0.279164     0.316455  Biso 1.000000     H
    H   1.0     0.616896     0.108591     0.514932  Biso 1.000000     H
    H   1.0     0.659572     0.228164     0.600648  Biso 1.000000     H
    H   1.0     0.524430     0.125937     0.317827  Biso 1.000000     H
    H   1.0     0.564484     0.054500     0.389915  Biso 1.000000     H
    H   1.0     0.805511     0.112372     0.160403  Biso 1.000000     H
    H   1.0     0.638606     0.176880     0.207600  Biso 1.000000     H
    H   1.0     0.729004    -0.007555     0.372571  Biso 1.000000     H
    H   1.0     0.761603     0.288952     0.897801  Biso 1.000000     H
    H   1.0     0.700585     0.286359     0.724231  Biso 1.000000     H
    H   1.0     0.957666     0.485433     0.469502  Biso 1.000000     H
    H   1.0     0.932436     0.673866     0.427430  Biso 1.000000     H
    H   1.0     0.735006     0.677389     0.635395  Biso 1.000000     H
    H   1.0     0.588859     0.751986     0.717263  Biso 1.000000     H
    H   1.0     0.700145     0.550572     0.852381  Biso 1.000000     H
    H   1.0     0.499949     0.700770     0.835654  Biso 1.000000     H
    H   1.0     0.539744     0.614182     0.890472  Biso 1.000000     H
    H   1.0     0.595598     0.640743     0.021280  Biso 1.000000     H
    H   1.0     0.633228     0.740828     0.126626  Biso 1.000000     H
    H   1.0     0.634915     0.946067     0.958222  Biso 1.000000     H
    H   1.0     0.598565     0.844530     0.851512  Biso 1.000000     H
    H   1.0     0.660315     0.978933     0.090895  Biso 1.000000     H
    H   1.0     0.724893     0.901337     0.141378  Biso 1.000000     H
    H   1.0     0.495806     0.848681     0.343034  Biso 1.000000     H
    H   1.0     0.654367     0.821261     0.257136  Biso 1.000000     H
    H   1.0     0.488243     0.000000     0.137922  Biso 1.000000     H
    H   1.0     0.526730     0.112718     0.928980  Biso 1.000000     H
    H   1.0     0.381811     0.043535     0.015565  Biso 1.000000     H
    H   1.0     0.427272     0.898065     0.808144  Biso 1.000000     H
    H   1.0     0.259429     0.932123     0.972596  Biso 1.000000     H
    H   1.0     0.279384     0.871610     0.887455  Biso 1.000000     H
    H   1.0     0.354747     0.898077     0.098244  Biso 1.000000     H
    H   1.0     0.400668     0.779194     0.183493  Biso 1.000000     H
    H   1.0     0.383177     0.608590     0.984978  Biso 1.000000     H
    H   1.0     0.340500     0.728135     0.899264  Biso 1.000000     H
    H   1.0     0.475613     0.625990     0.182119  Biso 1.000000     H
    H   1.0     0.435545     0.554528     0.110040  Biso 1.000000     H
    H   1.0     0.194546     0.612385     0.339568  Biso 1.000000     H
    H   1.0     0.361458     0.676916     0.292368  Biso 1.000000     H
    H   1.0     0.271011     0.492464     0.127380  Biso 1.000000     H
    H   1.0     0.261872     0.211735     0.102391  Biso 1.000000     H
    H   1.0     0.200136     0.213554     0.275712  Biso 1.000000     H
    H   1.0     0.457484     0.014616     0.530598  Biso 1.000000     H
    H   1.0     0.432673     0.826049     0.572394  Biso 1.000000     H
    H   1.0     0.235022     0.822782     0.364464  Biso 1.000000     H
    H   1.0     0.088777     0.748123     0.282596  Biso 1.000000     H
    H   1.0     0.199927     0.949507     0.147427  Biso 1.000000     H
    H   1.0    -0.000202     0.799165     0.164147  Biso 1.000000     H
    H   1.0     0.039464     0.885771     0.109305  Biso 1.000000     H
    H   1.0     0.095687     0.859263     0.978611  Biso 1.000000     H
    H   1.0     0.133517     0.759174     0.873364  Biso 1.000000     H
    H   1.0     0.134717     0.553922     0.041755  Biso 1.000000     H
    H   1.0     0.098225     0.655465     0.148381  Biso 1.000000     H
    H   1.0     0.160527     0.521089     0.909130  Biso 1.000000     H
    H   1.0     0.225034     0.598773     0.858724  Biso 1.000000     H
    H   1.0    -0.004123     0.651361     0.656899  Biso 1.000000     H
    H   1.0     0.154540     0.678681     0.742852  Biso 1.000000     H
    H   1.0     0.988355     0.499755     0.862024  Biso 1.000000     H
    H   1.0     0.026587     0.387416     0.070912  Biso 1.000000     H
    H   1.0     0.881648     0.456609     0.984248  Biso 1.000000     H
    H   1.0     0.927116     0.601914     0.191801  Biso 1.000000     H
    H   1.0     0.759242     0.567897     0.027176  Biso 1.000000     H
    H   1.0     0.779204     0.628377     0.112366  Biso 1.000000     H
    H   1.0     0.854881     0.601935     0.901712  Biso 1.000000     H
    H   1.0     0.900971     0.720831     0.816573  Biso 1.000000     H
    H   1.0     0.882950     0.891462     0.015013  Biso 1.000000     H
    H   1.0     0.840103     0.771902     0.100624  Biso 1.000000     H
    H   1.0     0.975692     0.874016     0.818002  Biso 1.000000     H
    H   1.0     0.935747     0.945480     0.890077  Biso 1.000000     H
    H   1.0     0.694530     0.887803     0.660414  Biso 1.000000     H
    H   1.0     0.861450     0.823228     0.707660  Biso 1.000000     H
    H   1.0     0.771219     0.000000     0.872695  Biso 1.000000     H
    C   1.0     0.700601     0.609253     0.313909  Biso 1.000000     C
    C   1.0     0.744665     0.691103     0.336403  Biso 1.000000     C
    C   1.0     0.792918     0.736914     0.284452  Biso 1.000000     C
    C   1.0     0.835142     0.820998     0.301364  Biso 1.000000     C
    C   1.0     0.609872     0.429095     0.053915  Biso 1.000000     C
    C   1.0     0.564056     0.448985     0.977624  Biso 1.000000     C
    C   1.0     0.546303     0.392053     0.920884  Biso 1.000000     C
    C   1.0     0.499287     0.414999     0.845850  Biso 1.000000     C
    C   1.0     0.794736     0.336843     0.192507  Biso 1.000000     C
    C   1.0     0.865459     0.299779     0.232260  Biso 1.000000     C
    C   1.0     0.809174     0.404709     0.304689  Biso 1.000000     C
    C   1.0     0.939835     0.324713     0.365532  Biso 1.000000     C
    C   1.0     0.906876     0.264395     0.428678  Biso 1.000000     C
    C   1.0     0.895613     0.292351     0.506474  Biso 1.000000     C
    C   1.0     0.874157     0.235343     0.566482  Biso 1.000000     C
    C   1.0     0.863646     0.148861     0.549982  Biso 1.000000     C
    C   1.0     0.872591     0.121175     0.471949  Biso 1.000000     C
    C   1.0     0.893578     0.178312     0.411817  Biso 1.000000     C
    C   1.0     0.841770     0.085822     0.614520  Biso 1.000000     C
    C   1.0     0.981265     0.123830     0.787854  Biso 1.000000     C
    C   1.0     0.903281     0.137919     0.745715  Biso 1.000000     C
    C   1.0     0.988295     0.043842     0.682489  Biso 1.000000     C
    C   1.0     0.016014     0.942168     0.417767  Biso 1.000000     C
    C   1.0     0.086042     0.976146     0.460949  Biso 1.000000     C
    C   1.0     0.065587     0.052820     0.352507  Biso 1.000000     C
    C   1.0     0.188957     0.105376     0.442032  Biso 1.000000     C
    C   1.0     0.156493     0.178237     0.492814  Biso 1.000000     C
    C   1.0     0.138339     0.165283     0.573031  Biso 1.000000     C
    C   1.0     0.112842     0.232761     0.621170  Biso 1.000000     C
    C   1.0     0.106089     0.315125     0.590552  Biso 1.000000     C
    C   1.0     0.123118     0.327967     0.510331  Biso 1.000000     C
    C   1.0     0.147421     0.260071     0.461812  Biso 1.000000     C
    C   1.0     0.082640     0.388831     0.643936  Biso 1.000000     C
    C   1.0     0.264319     0.403079     0.788534  Biso 1.000000     C
    C   1.0     0.181789     0.371009     0.765889  Biso 1.000000     C
    C   1.0     0.227976     0.465835     0.678039  Biso 1.000000     C
    C   1.0     0.200612     0.890907     0.686109  Biso 1.000000     C
    C   1.0     0.244744     0.809139     0.663512  Biso 1.000000     C
    C   1.0     0.292858     0.763157     0.715475  Biso 1.000000     C
    C   1.0     0.335051     0.679064     0.698571  Biso 1.000000     C
    C   1.0     0.109844     0.070899     0.946052  Biso 1.000000     C
    C   1.0     0.064004     0.051003     0.022297  Biso 1.000000     C
    C   1.0     0.046352     0.107909     0.079065  Biso 1.000000     C
    C   1.0     0.999358     0.084999     0.154072  Biso 1.000000     C
    C   1.0     0.294709     0.163253     0.807485  Biso 1.000000     C
    C   1.0     0.365407     0.200306     0.767745  Biso 1.000000     C
    C   1.0     0.309057     0.095314     0.695347  Biso 1.000000     C
    C   1.0     0.439686     0.175266     0.634522  Biso 1.000000     C
    C   1.0     0.406782     0.235575     0.571317  Biso 1.000000     C
    C   1.0     0.395717     0.207641     0.493479  Biso 1.000000     C
    C   1.0     0.374385     0.264654     0.433422  Biso 1.000000     C
    C   1.0     0.363748     0.351117     0.449919  Biso 1.000000     C
    C   1.0     0.372486     0.378775     0.527989  Biso 1.000000     C
    C   1.0     0.393352     0.321635     0.588167  Biso 1.000000     C
    C   1.0     0.341946     0.414175     0.385357  Biso 1.000000     C
    C   1.0     0.481304     0.376159     0.212101  Biso 1.000000     C
    C   1.0     0.403366     0.362036     0.254219  Biso 1.000000     C
    C   1.0     0.488411     0.456189     0.317451  Biso 1.000000     C
    C   1.0     0.515905     0.557909     0.582216  Biso 1.000000     C
    C   1.0     0.585867     0.523910     0.539054  Biso 1.000000     C
    C   1.0     0.565401     0.447195     0.647443  Biso 1.000000     C
    C   1.0     0.688738     0.394673     0.558016  Biso 1.000000     C
    C   1.0     0.656345     0.321802     0.507163  Biso 1.000000     C
    C   1.0     0.638392     0.334735     0.426891  Biso 1.000000     C
    C   1.0     0.613013     0.267243     0.378685  Biso 1.000000     C
    C   1.0     0.606170     0.184883     0.409295  Biso 1.000000     C
    C   1.0     0.623002     0.172060     0.489568  Biso 1.000000     C
    C   1.0     0.647187     0.239970     0.538149  Biso 1.000000     C
    C   1.0     0.582784     0.111165     0.355866  Biso 1.000000     C
    C   1.0     0.764384     0.097037     0.211364  Biso 1.000000     C
    C   1.0     0.681884     0.129099     0.233989  Biso 1.000000     C
    C   1.0     0.728095     0.034216     0.321810  Biso 1.000000     C
    C   1.0     0.799370     0.391064     0.813850  Biso 1.000000     C
    C   1.0     0.755378     0.309218     0.836477  Biso 1.000000     C
    C   1.0     0.707245     0.263206     0.784527  Biso 1.000000     C
    C   1.0     0.665001     0.179117     0.801426  Biso 1.000000     C
    C   1.0     0.890208     0.570908     0.553897  Biso 1.000000     C
    C   1.0     0.936048     0.551002     0.477682  Biso 1.000000     C
    C   1.0     0.953704     0.607903     0.420913  Biso 1.000000     C
    C   1.0     0.000706     0.584993     0.345911  Biso 1.000000     C
    C   1.0     0.705321     0.663262     0.692408  Biso 1.000000     C
    C   1.0     0.634616     0.700299     0.732140  Biso 1.000000     C
    C   1.0     0.691001     0.595373     0.804566  Biso 1.000000     C
    C   1.0     0.560362     0.675269     0.865386  Biso 1.000000     C
    C   1.0     0.593270     0.735578     0.928606  Biso 1.000000     C
    C   1.0     0.604350     0.707641     0.006463  Biso 1.000000     C
    C   1.0     0.625698     0.764650     0.066531  Biso 1.000000     C
    C   1.0     0.636318     0.851121     0.050058  Biso 1.000000     C
    C   1.0     0.627557     0.878786     0.971969  Biso 1.000000     C
    C   1.0     0.606687     0.821647     0.911778  Biso 1.000000     C
    C   1.0     0.658137     0.914169     0.114637  Biso 1.000000     C
    C   1.0     0.518737     0.876170     0.287884  Biso 1.000000     C
    C   1.0     0.596678     0.862044     0.245775  Biso 1.000000     C
    C   1.0     0.511668     0.956171     0.182526  Biso 1.000000     C
    C   1.0     0.484141     0.057908     0.917715  Biso 1.000000     C
    C   1.0     0.414165     0.023907     0.960869  Biso 1.000000     C
    C   1.0     0.434630     0.947173     0.852475  Biso 1.000000     C
    C   1.0     0.311288     0.894635     0.941900  Biso 1.000000     C
    C   1.0     0.343684     0.821783     0.992755  Biso 1.000000     C
    C   1.0     0.361628     0.834738     0.073058  Biso 1.000000     C
    C   1.0     0.387011     0.767260     0.121263  Biso 1.000000     C
    C   1.0     0.393871     0.684898     0.090653  Biso 1.000000     C
    C   1.0     0.377053     0.672063     0.010377  Biso 1.000000     C
    C   1.0     0.352866     0.739953     0.961766  Biso 1.000000     C
    C   1.0     0.417254     0.611197     0.144086  Biso 1.000000     C
    C   1.0     0.235667     0.597055     0.288603  Biso 1.000000     C
    C   1.0     0.318170     0.629128     0.265976  Biso 1.000000     C
    C   1.0     0.271933     0.534235     0.178147  Biso 1.000000     C
    C   1.0     0.299506     0.109332     0.186082  Biso 1.000000     C
    C   1.0     0.255422     0.191166     0.163605  Biso 1.000000     C
    C   1.0     0.207029     0.236901     0.215510  Biso 1.000000     C
    C   1.0     0.164881     0.321010     0.198611  Biso 1.000000     C
    C   1.0     0.390177     0.929105     0.446044  Biso 1.000000     C
    C   1.0     0.436030     0.948997     0.522296  Biso 1.000000     C
    C   1.0     0.453789     0.892051     0.579011  Biso 1.000000     C
    C   1.0     0.500780     0.914991     0.654066  Biso 1.000000     C
    C   1.0     0.205270     0.836880     0.307442  Biso 1.000000     C
    C   1.0     0.134518     0.799815     0.267707  Biso 1.000000     C
    C   1.0     0.190848     0.904720     0.195257  Biso 1.000000     C
    C   1.0     0.060158     0.824721     0.134427  Biso 1.000000     C
    C   1.0     0.093111     0.764411     0.071270  Biso 1.000000     C
    C   1.0     0.104376     0.792362     0.993448  Biso 1.000000     C
    C   1.0     0.125842     0.735356     0.933439  Biso 1.000000     C
    C   1.0     0.136388     0.648882     0.949933  Biso 1.000000     C
    C   1.0     0.127429     0.621205     0.027992  Biso 1.000000     C
    C   1.0     0.106456     0.678341     0.088131  Biso 1.000000     C
    C   1.0     0.158292     0.585854     0.885391  Biso 1.000000     C
    C   1.0     0.018824     0.623855     0.712056  Biso 1.000000     C
    C   1.0     0.096822     0.637929     0.754189  Biso 1.000000     C
    C   1.0     0.011763     0.543870     0.817413  Biso 1.000000     C
    C   1.0     0.984009     0.442195     0.082182  Biso 1.000000     C
    C   1.0     0.914006     0.476184     0.038996  Biso 1.000000     C
    C   1.0     0.934476     0.552835     0.147453  Biso 1.000000     C
    C   1.0     0.811104     0.605377     0.057947  Biso 1.000000     C
    C   1.0     0.843530     0.678248     0.007154  Biso 1.000000     C
    C   1.0     0.861688     0.665281     0.926909  Biso 1.000000     C
    C   1.0     0.887146     0.732767     0.878762  Biso 1.000000     C
    C   1.0     0.893929     0.815131     0.909387  Biso 1.000000     C
    C   1.0     0.876893     0.827983     0.989607  Biso 1.000000     C
    C   1.0     0.852624     0.760085     0.038160  Biso 1.000000     C
    C   1.0     0.917371     0.888838     0.856002  Biso 1.000000     C
    C   1.0     0.735698     0.903103     0.711403  Biso 1.000000     C
    C   1.0     0.818205     0.871011     0.734049  Biso 1.000000     C
    C   1.0     0.772079     0.965861     0.821902  Biso 1.000000     C
    N   1.0     0.760002     0.402292     0.238220  Biso 1.000000     N
    N   1.0     0.873415     0.343111     0.303014  Biso 1.000000     N
    N   1.0     0.033923     0.064760     0.747871  Biso 1.000000     N
    N   1.0     0.908300     0.086868     0.679411  Biso 1.000000     N
    N   1.0     0.003719     0.990556     0.350168  Biso 1.000000     N
    N   1.0     0.116478     0.046050     0.418672  Biso 1.000000     N
    N   1.0     0.292660     0.462179     0.733316  Biso 1.000000     N
    N   1.0     0.159364     0.411430     0.695903  Biso 1.000000     N
    N   1.0     0.259934     0.097769     0.761790  Biso 1.000000     N
    N   1.0     0.373304     0.156927     0.697020  Biso 1.000000     N
    N   1.0     0.534000     0.435271     0.252089  Biso 1.000000     N
    N   1.0     0.408436     0.413113     0.320510  Biso 1.000000     N
    N   1.0     0.503598     0.509488     0.649781  Biso 1.000000     N
    N   1.0     0.616254     0.453970     0.581308  Biso 1.000000     N
    N   1.0     0.792738     0.037901     0.266565  Biso 1.000000     N
    N   1.0     0.659494     0.088642     0.303946  Biso 1.000000     N
    N   1.0     0.740117     0.597817     0.738119  Biso 1.000000     N
    N   1.0     0.626743     0.656955     0.802882  Biso 1.000000     N
    N   1.0     0.466060     0.935268     0.247885  Biso 1.000000     N
    N   1.0     0.591634     0.913103     0.179478  Biso 1.000000     N
    N   1.0     0.496444     0.009483     0.850148  Biso 1.000000     N
    N   1.0     0.383773     0.953947     0.918607  Biso 1.000000     N
    N   1.0     0.207297     0.537913     0.233398  Biso 1.000000     N
    N   1.0     0.340545     0.588670     0.196013  Biso 1.000000     N
    N   1.0     0.240035     0.902307     0.261717  Biso 1.000000     N
    N   1.0     0.126575     0.843133     0.196951  Biso 1.000000     N
    N   1.0     0.966142     0.564791     0.752036  Biso 1.000000     N
    N   1.0     0.091784     0.586877     0.820484  Biso 1.000000     N
    N   1.0     0.996323     0.490577     0.149791  Biso 1.000000     N
    N   1.0     0.883588     0.546071     0.081283  Biso 1.000000     N
    N   1.0     0.707392     0.962214     0.766625  Biso 1.000000     N
    N   1.0     0.840654     0.911433     0.804037  Biso 1.000000     N
    O   1.0     0.691242     0.595899     0.238676  Biso 1.000000     O
    O   1.0     0.675732     0.558315     0.366727  Biso 1.000000     O
    O   1.0     0.874978     0.854751     0.239921  Biso 1.000000     O
    O   1.0     0.828318     0.856065     0.367199  Biso 1.000000     O
    O   1.0     0.624487     0.496739     0.096926  Biso 1.000000     O
    O   1.0     0.628546     0.354846     0.073687  Biso 1.000000     O
    O   1.0     0.468933     0.492305     0.840210  Biso 1.000000     O
    O   1.0     0.491708     0.359667     0.792907  Biso 1.000000     O
    O   1.0     0.191241     0.904111     0.761353  Biso 1.000000     O
    O   1.0     0.175820     0.942002     0.633363  Biso 1.000000     O
    O   1.0     0.374941     0.645320     0.760032  Biso 1.000000     O
    O   1.0     0.328253     0.644020     0.632718  Biso 1.000000     O
    O   1.0     0.124490     0.003256     0.903065  Biso 1.000000     O
    O   1.0     0.128554     0.145147     0.926308  Biso 1.000000     O
    O   1.0     0.968952     0.007705     0.159719  Biso 1.000000     O
    O   1.0     0.991780     0.140370     0.206974  Biso 1.000000     O
    O   1.0     0.808838     0.404143     0.738598  Biso 1.000000     O
    O   1.0     0.824066     0.442298     0.866536  Biso 1.000000     O
    O   1.0     0.625106     0.145370     0.739957  Biso 1.000000     O
    O   1.0     0.671820     0.144046     0.867260  Biso 1.000000     O
    O   1.0     0.875528     0.503268     0.596875  Biso 1.000000     O
    O   1.0     0.871481     0.645152     0.573633  Biso 1.000000     O
    O   1.0     0.031074     0.507695     0.340250  Biso 1.000000     O
    O   1.0     0.008268     0.640352     0.293003  Biso 1.000000     O
    O   1.0     0.308795     0.095922     0.261312  Biso 1.000000     O
    O   1.0     0.324311     0.058395     0.133241  Biso 1.000000     O
    O   1.0     0.125021     0.354754     0.260047  Biso 1.000000     O
    O   1.0     0.171700     0.356056     0.132770  Biso 1.000000     O
    O   1.0     0.375568     0.996748     0.403045  Biso 1.000000     O
    O   1.0     0.371483     0.854854     0.426271  Biso 1.000000     O
    O   1.0     0.531127     0.992306     0.659735  Biso 1.000000     O
    O   1.0     0.508327     0.859653     0.706999  Biso 1.000000     O
   Zn   1.0     0.655782     0.478034     0.209827  Biso 1.000000    Zn
   Zn   1.0     0.913577     0.973804     0.262869  Biso 1.000000    Zn
   Zn   1.0     0.155750     0.021987     0.790171  Biso 1.000000    Zn
   Zn   1.0     0.413523     0.526243     0.737057  Biso 1.000000    Zn
   Zn   1.0     0.844279     0.522015     0.709771  Biso 1.000000    Zn
   Zn   1.0     0.586525     0.026268     0.762892  Biso 1.000000    Zn
   Zn   1.0     0.344270     0.978041     0.290140  Biso 1.000000    Zn
   Zn   1.0     0.086458     0.473807     0.237101  Biso 1.000000    Zn
