#======================================================================

# CRYSTAL DATA

#----------------------------------------------------------------------

data_VESTA_phase_1


_pd_phase_name                         MOF
_cell_length_a                         12.76500
_cell_length_b                         15.35700
_cell_length_c                         18.61100
_cell_angle_alpha                      90.01400
_cell_angle_beta                       90.10400
_cell_angle_gamma                      90.28300
_symmetry_space_group_name_H-M         "P 1"
_symmetry_Int_Tables_number            1

loop_
_symmetry_equiv_pos_as_xyz
   "x, y, z"

loop_
   _atom_site_label
   _atom_site_occupancy
   _atom_site_fract_x
   _atom_site_fract_y
   _atom_site_fract_z
   _atom_site_adp_type
   _atom_site_B_iso_or_equiv
   _atom_site_type_symbol
    H   1.0     0.516864     0.978975     0.319477  Biso 1.000000     H
    H   1.0     0.687768     0.960903     0.383266  Biso 1.000000     H
    H   1.0     0.732914     0.059298     0.486218  Biso 1.000000     H
    H   1.0     0.440846     0.193087     0.459289  Biso 1.000000     H
    H   1.0     0.211444     0.262219     0.076412  Biso 1.000000     H
    H   1.0     0.165686     0.385854    -0.004772  Biso 1.000000     H
    H   1.0     0.041552     0.500597     0.037683  Biso 1.000000     H
    H   1.0     0.015669     0.370207     0.241512  Biso 1.000000     H
    H   1.0    -0.014903     0.021695     0.818540  Biso 1.000000     H
    H   1.0     0.813547     0.039215     0.881253  Biso 1.000000     H
    H   1.0     0.767161     0.939662     0.982961  Biso 1.000000     H
    H   1.0     0.058840     0.805273     0.956569  Biso 1.000000     H
    H   1.0     0.291109     0.736868     0.576814  Biso 1.000000     H
    H   1.0     0.336135     0.612242     0.496473  Biso 1.000000     H
    H   1.0     0.459304     0.497321     0.540055  Biso 1.000000     H
    H   1.0     0.486621     0.629860     0.742977  Biso 1.000000     H
    H   1.0     0.484883     0.476132     0.180501  Biso 1.000000     H
    H   1.0     0.312117     0.459084     0.118655  Biso 1.000000     H
    H   1.0     0.265254     0.559139     0.017538  Biso 1.000000     H
    H   1.0     0.558789     0.693560     0.043094  Biso 1.000000     H
    H   1.0     0.789390     0.760678     0.422961  Biso 1.000000     H
    H   1.0     0.834364     0.885256     0.503838  Biso 1.000000     H
    H   1.0     0.959150     0.000000     0.461533  Biso 1.000000     H
    H   1.0     0.988195     0.868365     0.258706  Biso 1.000000     H
    H   1.0     0.000000     0.521753     0.681877  Biso 1.000000     H
    H   1.0     0.187877     0.539223     0.619770  Biso 1.000000     H
    H   1.0     0.233954     0.439621     0.518271  Biso 1.000000     H
    H   1.0     0.940468     0.305189     0.543591  Biso 1.000000     H
    H   1.0     0.712947     0.236769     0.927014  Biso 1.000000     H
    H   1.0     0.666327     0.112074     0.000000  Biso 1.000000     H
    H   1.0     0.541513    -0.002634     0.963616  Biso 1.000000     H
    H   1.0     0.515757     0.130114     0.760870  Biso 1.000000     H
    C   1.0     0.366037     0.097650     0.348891  Biso 1.000000     C
    C   1.0     0.467916     0.086247     0.386077  Biso 1.000000     C
    C   1.0     0.537958     0.021088     0.364358  Biso 1.000000     C
    C   1.0     0.633163     0.011163     0.400191  Biso 1.000000     C
    C   1.0     0.658841     0.065811     0.457580  Biso 1.000000     C
    C   1.0     0.589650     0.131559     0.478994  Biso 1.000000     C
    C   1.0     0.494275     0.141723     0.443098  Biso 1.000000     C
    C   1.0     0.618529     0.191606     0.538913  Biso 1.000000     C
    C   1.0     0.142915     0.235828     0.213056  Biso 1.000000     C
    C   1.0     0.158572     0.313243     0.094291  Biso 1.000000     C
    C   1.0     0.132406     0.382273     0.049047  Biso 1.000000     C
    C   1.0     0.063509     0.446544     0.072417  Biso 1.000000     C
    C   1.0     0.020673     0.441975     0.141752  Biso 1.000000     C
    C   1.0     0.048209     0.373723     0.187621  Biso 1.000000     C
    C   1.0     0.116759     0.309034     0.163956  Biso 1.000000     C
    C   1.0     0.943249     0.508218     0.165619  Biso 1.000000     C
    C   1.0     0.135362     0.902214     0.848143  Biso 1.000000     C
    C   1.0     0.032921     0.913311     0.884382  Biso 1.000000     C
    C   1.0    -0.036653     0.978934     0.862787  Biso 1.000000     C
    C   1.0     0.867798     0.988555     0.898021  Biso 1.000000     C
    C   1.0     0.841387     0.933189     0.954698  Biso 1.000000     C
    C   1.0     0.910072     0.866875     0.975841  Biso 1.000000     C
    C   1.0     0.005709     0.856966     0.940525  Biso 1.000000     C
    C   1.0     0.880867     0.806359     0.035206  Biso 1.000000     C
    C   1.0     0.359444     0.764043     0.713507  Biso 1.000000     C
    C   1.0     0.343724     0.685815     0.595099  Biso 1.000000     C
    C   1.0     0.369430     0.616234     0.550351  Biso 1.000000     C
    C   1.0     0.437861     0.551900     0.574337  Biso 1.000000     C
    C   1.0     0.480958     0.557037     0.643700  Biso 1.000000     C
    C   1.0     0.453988     0.625885     0.689046  Biso 1.000000     C
    C   1.0     0.385622     0.690521     0.664813  Biso 1.000000     C
    C   1.0     0.557690     0.490329     0.667920  Biso 1.000000     C
    C   1.0     0.636087     0.596041     0.150740  Biso 1.000000     C
    C   1.0     0.532959     0.584974     0.114894  Biso 1.000000     C
    C   1.0     0.462979     0.519184     0.136538  Biso 1.000000     C
    C   1.0     0.366713     0.509827     0.101785  Biso 1.000000     C
    C   1.0     0.339995     0.565505     0.045461  Biso 1.000000     C
    C   1.0     0.409046     0.632001     0.024247  Biso 1.000000     C
    C   1.0     0.505376     0.641701     0.059155  Biso 1.000000     C
    C   1.0     0.379627     0.692862     0.965211  Biso 1.000000     C
    C   1.0     0.859387     0.733530     0.287094  Biso 1.000000     C
    C   1.0     0.842712     0.811874     0.405215  Biso 1.000000     C
    C   1.0     0.868380     0.881445     0.450258  Biso 1.000000     C
    C   1.0     0.937735     0.945965     0.426981  Biso 1.000000     C
    C   1.0     0.981749     0.941092     0.358002  Biso 1.000000     C
    C   1.0     0.954846     0.872170     0.312348  Biso 1.000000     C
    C   1.0     0.885590     0.807288     0.335888  Biso 1.000000     C
    C   1.0     0.059197     0.008266     0.334532  Biso 1.000000     C
    C   1.0     0.864173     0.402184     0.651994  Biso 1.000000     C
    C   1.0     0.967017     0.413308     0.615895  Biso 1.000000     C
    C   1.0     0.000000     0.478943     0.637698  Biso 1.000000     C
    C   1.0     0.133156     0.488537     0.602796  Biso 1.000000     C
    C   1.0     0.159396     0.433148     0.546219  Biso 1.000000     C
    C   1.0     0.090125     0.366803     0.524766  Biso 1.000000     C
    C   1.0     0.994062     0.356935     0.559793  Biso 1.000000     C
    C   1.0     0.119329     0.306261     0.465443  Biso 1.000000     C
    C   1.0     0.643963     0.264236     0.790388  Biso 1.000000     C
    C   1.0     0.659663     0.185764     0.908685  Biso 1.000000     C
    C   1.0     0.633071     0.116141     0.953355  Biso 1.000000     C
    C   1.0     0.563705     0.051913     0.929347  Biso 1.000000     C
    C   1.0     0.520623     0.057147     0.860000  Biso 1.000000     C
    C   1.0     0.548438     0.126018     0.814761  Biso 1.000000     C
    C   1.0     0.617661     0.190580     0.839031  Biso 1.000000     C
    C   1.0     0.443002     0.990606     0.835599  Biso 1.000000     C
    O   1.0     0.346772     0.048347     0.293971  Biso 1.000000     O
    O   1.0     0.303279     0.155294     0.371779  Biso 1.000000     O
    O   1.0     0.560442     0.259537     0.549088  Biso 1.000000     O
    O   1.0     0.697739     0.177777     0.577992  Biso 1.000000     O
    O   1.0     0.200194     0.174089     0.187366  Biso 1.000000     O
    O   1.0     0.106832     0.236938     0.276526  Biso 1.000000     O
    O   1.0     0.907209     0.499686     0.230285  Biso 1.000000     O
    O   1.0     0.915327     0.566900     0.122074  Biso 1.000000     O
    O   1.0     0.155448     0.951816     0.793619  Biso 1.000000     O
    O   1.0     0.197730     0.844524     0.871516  Biso 1.000000     O
    O   1.0     0.936681     0.736859     0.043937  Biso 1.000000     O
    O   1.0     0.803534     0.821661     0.075531  Biso 1.000000     O
    O   1.0     0.302296     0.825756     0.687479  Biso 1.000000     O
    O   1.0     0.395351     0.763088     0.777110  Biso 1.000000     O
    O   1.0     0.596166     0.499677     0.731873  Biso 1.000000     O
    O   1.0     0.582380     0.430137     0.624906  Biso 1.000000     O
    O   1.0     0.657601     0.544887     0.203927  Biso 1.000000     O
    O   1.0     0.697400     0.655448     0.128251  Biso 1.000000     O
    O   1.0     0.436140     0.762409     0.956580  Biso 1.000000     O
    O   1.0     0.301752     0.677802     0.924972  Biso 1.000000     O
    O   1.0     0.800552     0.672143     0.312505  Biso 1.000000     O
    O   1.0     0.896920     0.733711     0.223979  Biso 1.000000     O
    O   1.0     0.097441    -0.000237     0.270571  Biso 1.000000     O
    O   1.0     0.084618     0.067997     0.378068  Biso 1.000000     O
    O   1.0     0.844425     0.451638     0.706581  Biso 1.000000     O
    O   1.0     0.801447     0.344519     0.628234  Biso 1.000000     O
    O   1.0     0.062723     0.236914     0.456136  Biso 1.000000     O
    O   1.0     0.197551     0.321417     0.425626  Biso 1.000000     O
    O   1.0     0.702038     0.326125     0.815936  Biso 1.000000     O
    O   1.0     0.606926     0.263447     0.727090  Biso 1.000000     O
    O   1.0     0.404723     0.000000     0.771663  Biso 1.000000     O
    O   1.0     0.417481     0.930411     0.878542  Biso 1.000000     O
   Zn   1.0     0.213105     0.077570     0.252834  Biso 1.000000    Zn
   Zn   1.0     0.151001     0.192612     0.374981  Biso 1.000000    Zn
   Zn   1.0     0.289079     0.922412     0.752851  Biso 1.000000    Zn
   Zn   1.0     0.350152     0.807280     0.874964  Biso 1.000000    Zn
   Zn   1.0     0.790220     0.574819     0.247103  Biso 1.000000    Zn
   Zn   1.0     0.849407     0.692151     0.125270  Biso 1.000000    Zn
   Zn   1.0     0.711677     0.422574     0.749876  Biso 1.000000    Zn
   Zn   1.0     0.649319     0.307145     0.628287  Biso 1.000000    Zn
