#======================================================================

# CRYSTAL DATA

#----------------------------------------------------------------------

data_VESTA_phase_1


_pd_phase_name                         MOF
_cell_length_a                         12.39000
_cell_length_b                         13.25200
_cell_length_c                         17.63000
_cell_angle_alpha                      82.78000
_cell_angle_beta                       73.95200
_cell_angle_gamma                      62.19200
_symmetry_space_group_name_H-M         "P 1"
_symmetry_Int_Tables_number            1

loop_
_symmetry_equiv_pos_as_xyz
   "x, y, z"

loop_
   _atom_site_label
   _atom_site_occupancy
   _atom_site_fract_x
   _atom_site_fract_y
   _atom_site_fract_z
   _atom_site_adp_type
   _atom_site_B_iso_or_equiv
   _atom_site_type_symbol
    H   1.0     0.801334     0.637108     0.430272  Biso 1.000000     H
    H   1.0     0.114835     0.207960     0.651777  Biso 1.000000     H
    H   1.0     0.955051     0.219128     0.586108  Biso 1.000000     H
    H   1.0     0.860708     0.089673     0.123888  Biso 1.000000     H
    H   1.0     0.731322     0.082712     0.258179  Biso 1.000000     H
    H   1.0     0.871677     0.748573     0.621932  Biso 1.000000     H
    H   1.0     0.940340     0.439130     0.377023  Biso 1.000000     H
    H   1.0     0.036473     0.207512     0.904787  Biso 1.000000     H
    H   1.0     0.850627     0.092879     0.462865  Biso 1.000000     H
    H   1.0     0.807884     0.605360     0.755982  Biso 1.000000     H
    H   1.0     0.672693     0.636047     0.837135  Biso 1.000000     H
    H   1.0     0.696678     0.817722     0.817349  Biso 1.000000     H
    H   1.0     0.560443     0.638999     0.069342  Biso 1.000000     H
    H   1.0     0.677244     0.207870     0.849607  Biso 1.000000     H
    H   1.0     0.825813     0.219118     0.915345  Biso 1.000000     H
    H   1.0     0.049401     0.090106     0.376782  Biso 1.000000     H
    H   1.0     0.185919     0.082971     0.242393  Biso 1.000000     H
    H   1.0     0.380849     0.746256     0.877259  Biso 1.000000     H
    H   1.0     0.618954     0.441957     0.123238  Biso 1.000000     H
    H   1.0     0.755998     0.207550     0.596600  Biso 1.000000     H
    H   1.0     0.056748     0.092375     0.037782  Biso 1.000000     H
    H   1.0     0.585885     0.605710     0.741617  Biso 1.000000     H
    H   1.0     0.690508     0.636226     0.660662  Biso 1.000000     H
    H   1.0     0.485137     0.818217     0.681551  Biso 1.000000     H
    H   1.0     0.198632     0.362933     0.569719  Biso 1.000000     H
    H   1.0     0.885126     0.792089     0.348214  Biso 1.000000     H
    H   1.0     0.044906     0.780927     0.413883  Biso 1.000000     H
    H   1.0     0.139247     0.910384     0.876103  Biso 1.000000     H
    H   1.0     0.268634     0.917341     0.741811  Biso 1.000000     H
    H   1.0     0.128289     0.251469     0.378058  Biso 1.000000     H
    H   1.0     0.059625     0.560911     0.622968  Biso 1.000000     H
    H   1.0     0.963486     0.792536     0.095204  Biso 1.000000     H
    H   1.0     0.149327     0.907171     0.537127  Biso 1.000000     H
    H   1.0     0.192076     0.394690     0.244011  Biso 1.000000     H
    H   1.0     0.327266     0.364000     0.162857  Biso 1.000000     H
    H   1.0     0.303278     0.182328     0.182645  Biso 1.000000     H
    H   1.0     0.439516     0.361058     0.930652  Biso 1.000000     H
    H   1.0     0.322715     0.792183     0.150384  Biso 1.000000     H
    H   1.0     0.174146     0.780934     0.084646  Biso 1.000000     H
    H   1.0     0.950552     0.909947     0.623211  Biso 1.000000     H
    H   1.0     0.814035     0.917082     0.757600  Biso 1.000000     H
    H   1.0     0.619111     0.253798     0.122734  Biso 1.000000     H
    H   1.0     0.381009     0.558096     0.876754  Biso 1.000000     H
    H   1.0     0.243960     0.792504     0.403392  Biso 1.000000     H
    H   1.0     0.943209     0.907681     0.962210  Biso 1.000000     H
    H   1.0     0.414079     0.394336     0.258373  Biso 1.000000     H
    H   1.0     0.309455     0.363822     0.339329  Biso 1.000000     H
    H   1.0     0.514824     0.181828     0.318440  Biso 1.000000     H
    C   1.0     0.711211     0.815820     0.528059  Biso 1.000000     C
    C   1.0     0.825560     0.703001     0.525843  Biso 1.000000     C
    C   1.0     0.962905     0.510954     0.472173  Biso 1.000000     C
    C   1.0     0.087961     0.206043     0.777138  Biso 1.000000     C
    C   1.0     0.219257     0.185838     0.771675  Biso 1.000000     C
    C   1.0     0.857923     0.619166     0.472454  Biso 1.000000     C
    C   1.0     0.050303     0.211741     0.708954  Biso 1.000000     C
    C   1.0     0.893968     0.217019     0.643667  Biso 1.000000     C
    C   1.0     0.930960     0.090569     0.149556  Biso 1.000000     C
    C   1.0     0.663545     0.083863     0.417415  Biso 1.000000     C
    C   1.0     0.778986     0.088651     0.365134  Biso 1.000000     C
    C   1.0     0.799637     0.087097     0.283779  Biso 1.000000     C
    C   1.0     0.908950     0.089595     0.233162  Biso 1.000000     C
    C   1.0     0.932259     0.216959     0.712695  Biso 1.000000     C
    C   1.0     0.899648     0.681322     0.580433  Biso 1.000000     C
    C   1.0     0.997240     0.422752     0.418822  Biso 1.000000     C
    C   1.0     0.004841     0.210956     0.852260  Biso 1.000000     C
    C   1.0     0.869238     0.091812     0.398792  Biso 1.000000     C
    C   1.0     0.706860     0.661754     0.777131  Biso 1.000000     C
    C   1.0     0.472563     0.815876     0.971253  Biso 1.000000     C
    C   1.0     0.471450     0.702790     0.973530  Biso 1.000000     C
    C   1.0     0.525761     0.511620     0.027796  Biso 1.000000     C
    C   1.0     0.706000     0.206010     0.724234  Biso 1.000000     C
    C   1.0     0.594938     0.185769     0.729553  Biso 1.000000     C
    C   1.0     0.522401     0.620018     0.027176  Biso 1.000000     C
    C   1.0     0.737958     0.211705     0.792452  Biso 1.000000     C
    C   1.0     0.888997     0.217005     0.857771  Biso 1.000000     C
    C   1.0     0.978326     0.090869     0.351090  Biso 1.000000     C
    C   1.0     0.252568     0.083949     0.083123  Biso 1.000000     C
    C   1.0     0.132427     0.088582     0.135475  Biso 1.000000     C
    C   1.0     0.113266     0.087223     0.216828  Biso 1.000000     C
    C   1.0     0.001477     0.089669     0.267471  Biso 1.000000     C
    C   1.0     0.850756     0.216938     0.788748  Biso 1.000000     C
    C   1.0     0.419790     0.679806     0.918950  Biso 1.000000     C
    C   1.0     0.579014     0.424521     0.081471  Biso 1.000000     C
    C   1.0     0.784184     0.210987     0.649147  Biso 1.000000     C
    C   1.0     0.039111     0.091515     0.101848  Biso 1.000000     C
    C   1.0     0.630708     0.661962     0.720817  Biso 1.000000     C
    C   1.0     0.288750     0.184218     0.471934  Biso 1.000000     C
    C   1.0     0.174407     0.297042     0.474146  Biso 1.000000     C
    C   1.0     0.037060     0.489087     0.527819  Biso 1.000000     C
    C   1.0     0.911999     0.794005     0.222853  Biso 1.000000     C
    C   1.0     0.780704     0.814206     0.228318  Biso 1.000000     C
    C   1.0     0.142042     0.380875     0.527538  Biso 1.000000     C
    C   1.0     0.949657     0.788311     0.291037  Biso 1.000000     C
    C   1.0     0.105990     0.783037     0.356324  Biso 1.000000     C
    C   1.0     0.068994     0.909488     0.850436  Biso 1.000000     C
    C   1.0     0.336412     0.916184     0.582575  Biso 1.000000     C
    C   1.0     0.220971     0.911398     0.634857  Biso 1.000000     C
    C   1.0     0.200318     0.912957     0.716212  Biso 1.000000     C
    C   1.0     0.091005     0.910457     0.766829  Biso 1.000000     C
    C   1.0     0.067702     0.783088     0.287297  Biso 1.000000     C
    C   1.0     0.100316     0.318719     0.419559  Biso 1.000000     C
    C   1.0     0.002726     0.577290     0.581169  Biso 1.000000     C
    C   1.0     0.995118     0.789094     0.147731  Biso 1.000000     C
    C   1.0     0.130716     0.908240     0.601200  Biso 1.000000     C
    C   1.0     0.293100     0.338294     0.222862  Biso 1.000000     C
    C   1.0     0.527391     0.184181     0.028739  Biso 1.000000     C
    C   1.0     0.528510     0.297266     0.026463  Biso 1.000000     C
    C   1.0     0.474201     0.488435     0.972197  Biso 1.000000     C
    C   1.0     0.293953     0.794051     0.275757  Biso 1.000000     C
    C   1.0     0.405028     0.814272     0.270437  Biso 1.000000     C
    C   1.0     0.477559     0.380038     0.972818  Biso 1.000000     C
    C   1.0     0.262003     0.788342     0.207539  Biso 1.000000     C
    C   1.0     0.110963     0.783043     0.142220  Biso 1.000000     C
    C   1.0     0.021628     0.909183     0.648902  Biso 1.000000     C
    C   1.0     0.747390     0.916100     0.916871  Biso 1.000000     C
    C   1.0     0.867527     0.911474     0.864518  Biso 1.000000     C
    C   1.0     0.886689     0.912829     0.783165  Biso 1.000000     C
    C   1.0     0.998476     0.910386     0.732521  Biso 1.000000     C
    C   1.0     0.149201     0.783117     0.211243  Biso 1.000000     C
    C   1.0     0.580171     0.320248     0.081043  Biso 1.000000     C
    C   1.0     0.420948     0.575533     0.918522  Biso 1.000000     C
    C   1.0     0.215777     0.789063     0.350844  Biso 1.000000     C
    C   1.0     0.960845     0.908539     0.898144  Biso 1.000000     C
    C   1.0     0.369254     0.338085     0.279174  Biso 1.000000     C
    C   1.0     0.575744     0.848324     0.749566  Biso 1.000000     C
    C   1.0     0.424213     0.151724     0.250427  Biso 1.000000     C
    N   1.0     0.680866     0.781834     0.775615  Biso 1.000000     N
    N   1.0     0.536844     0.782132     0.723067  Biso 1.000000     N
    N   1.0     0.319091     0.218215     0.224379  Biso 1.000000     N
    N   1.0     0.463117     0.217914     0.276924  Biso 1.000000     N
    O   1.0     0.648928     0.835776     0.476503  Biso 1.000000     O
    O   1.0     0.681829     0.885381     0.582545  Biso 1.000000     O
    O   1.0     0.291214     0.182972     0.703668  Biso 1.000000     O
    O   1.0     0.253722     0.168899     0.836007  Biso 1.000000     O
    O   1.0     0.639279     0.098600     0.490950  Biso 1.000000     O
    O   1.0     0.594551     0.064700     0.384082  Biso 1.000000     O
    O   1.0     0.514233     0.836804     0.000000  Biso 1.000000     O
    O   1.0     0.432675     0.884727     0.916772  Biso 1.000000     O
    O   1.0     0.525831     0.182863     0.797508  Biso 1.000000     O
    O   1.0     0.577451     0.168851     0.665116  Biso 1.000000     O
    O   1.0     0.262290     0.098102     0.009619  Biso 1.000000     O
    O   1.0     0.340513     0.065510     0.116338  Biso 1.000000     O
    O   1.0     0.351031     0.164259     0.523492  Biso 1.000000     O
    O   1.0     0.318134     0.114661     0.417446  Biso 1.000000     O
    O   1.0     0.708751     0.817071     0.296326  Biso 1.000000     O
    O   1.0     0.746235     0.831146     0.163988  Biso 1.000000     O
    O   1.0     0.360679     0.901443     0.509041  Biso 1.000000     O
    O   1.0     0.405407     0.935347     0.615908  Biso 1.000000     O
    O   1.0     0.485717     0.163260    -0.022901  Biso 1.000000     O
    O   1.0     0.567280     0.115326     0.083218  Biso 1.000000     O
    O   1.0     0.474133     0.817180     0.202482  Biso 1.000000     O
    O   1.0     0.422516     0.831189     0.334874  Biso 1.000000     O
    O   1.0     0.737669     0.901944     0.990375  Biso 1.000000     O
    O   1.0     0.659442     0.934542     0.883657  Biso 1.000000     O
    O   1.0     0.521269     0.957425     0.749923  Biso 1.000000     O
    O   1.0     0.478685     0.042623     0.250071  Biso 1.000000     O
   La   1.0     0.490926     0.071628     0.611711  Biso 1.000000    La
   La   1.0     0.437635     0.071066     0.888686  Biso 1.000000    La
   La   1.0     0.509036     0.928413     0.388282  Biso 1.000000    La
   La   1.0     0.562323     0.928984     0.111308  Biso 1.000000    La
