#======================================================================

# CRYSTAL DATA

#----------------------------------------------------------------------

data_VESTA_phase_1


_pd_phase_name                         MOF
_cell_length_a                         21.12500
_cell_length_b                         21.12500
_cell_length_c                         16.69800
_cell_angle_alpha                      90.09800
_cell_angle_beta                       90.06700
_cell_angle_gamma                      104.79800
_symmetry_space_group_name_H-M         "P 1"
_symmetry_Int_Tables_number            1

loop_
_symmetry_equiv_pos_as_xyz
   "x, y, z"

loop_
   _atom_site_label
   _atom_site_occupancy
   _atom_site_fract_x
   _atom_site_fract_y
   _atom_site_fract_z
   _atom_site_adp_type
   _atom_site_B_iso_or_equiv
   _atom_site_type_symbol
    H   1.0     0.257240     0.046675     0.706251  Biso 1.000000     H
    H   1.0     0.257705     0.545179     0.705300  Biso 1.000000     H
    H   1.0     0.756700     0.045438     0.706435  Biso 1.000000     H
    H   1.0     0.757585     0.544567     0.703504  Biso 1.000000     H
    H   1.0     0.129308     0.424092     0.533322  Biso 1.000000     H
    H   1.0     0.128868     0.923506     0.535962  Biso 1.000000     H
    H   1.0     0.628895     0.422915     0.532242  Biso 1.000000     H
    H   1.0     0.628913     0.922842     0.535098  Biso 1.000000     H
    H   1.0     0.052719     0.044336     0.697948  Biso 1.000000     H
    H   1.0     0.053406     0.543832     0.697120  Biso 1.000000     H
    H   1.0     0.552278     0.043345     0.696979  Biso 1.000000     H
    H   1.0     0.553331     0.543355     0.695452  Biso 1.000000     H
    H   1.0     0.244454     0.456457     0.206067  Biso 1.000000     H
    H   1.0     0.242531     0.956280     0.206476  Biso 1.000000     H
    H   1.0     0.744337     0.455948     0.203567  Biso 1.000000     H
    H   1.0     0.742526     0.955637     0.206565  Biso 1.000000     H
    H   1.0     0.369472     0.076592     0.033450  Biso 1.000000     H
    H   1.0     0.371643     0.577197     0.033564  Biso 1.000000     H
    H   1.0     0.869338     0.076245     0.033623  Biso 1.000000     H
    H   1.0     0.872683     0.578687     0.033796  Biso 1.000000     H
    H   1.0     0.448338     0.456693     0.195214  Biso 1.000000     H
    H   1.0     0.446764     0.957691     0.196540  Biso 1.000000     H
    H   1.0     0.948749     0.457825     0.195547  Biso 1.000000     H
    H   1.0     0.946839     0.957319     0.196410  Biso 1.000000     H
    H   1.0     0.454395     0.243938     0.793399  Biso 1.000000     H
    H   1.0     0.456080     0.743013     0.793376  Biso 1.000000     H
    H   1.0     0.954634     0.244268     0.793026  Biso 1.000000     H
    H   1.0     0.956261     0.742972     0.794819  Biso 1.000000     H
    H   1.0     0.076620     0.371381     0.965447  Biso 1.000000     H
    H   1.0     0.078686     0.872666     0.964559  Biso 1.000000     H
    H   1.0     0.577608     0.371458     0.964456  Biso 1.000000     H
    H   1.0     0.578103     0.871525     0.964549  Biso 1.000000     H
    H   1.0     0.458070     0.448755     0.801988  Biso 1.000000     H
    H   1.0     0.457183     0.947217     0.802321  Biso 1.000000     H
    H   1.0     0.957563     0.448909     0.802497  Biso 1.000000     H
    H   1.0     0.956828     0.947096     0.802330  Biso 1.000000     H
    H   1.0     0.044061     0.256850     0.292798  Biso 1.000000     H
    H   1.0     0.045242     0.758630     0.294974  Biso 1.000000     H
    H   1.0     0.544634     0.257396     0.293419  Biso 1.000000     H
    H   1.0     0.543546     0.756970     0.292305  Biso 1.000000     H
    H   1.0     0.423793     0.130292     0.465885  Biso 1.000000     H
    H   1.0     0.422033     0.629993     0.464398  Biso 1.000000     H
    H   1.0     0.923214     0.130359     0.465827  Biso 1.000000     H
    H   1.0     0.922487     0.629998     0.464520  Biso 1.000000     H
    H   1.0     0.042550     0.052636     0.303609  Biso 1.000000     H
    H   1.0     0.043241     0.554173     0.302240  Biso 1.000000     H
    H   1.0     0.543415     0.053210     0.303420  Biso 1.000000     H
    H   1.0     0.542211     0.552777     0.302833  Biso 1.000000     H
    C   1.0     0.156096     0.051414     0.708389  Biso 1.000000     C
    C   1.0     0.156645     0.550261     0.707757  Biso 1.000000     C
    C   1.0     0.655559     0.050278     0.708084  Biso 1.000000     C
    C   1.0     0.656579     0.549759     0.705930  Biso 1.000000     C
    C   1.0     0.209059     0.029871     0.678851  Biso 1.000000     C
    C   1.0     0.209565     0.528875     0.677669  Biso 1.000000     C
    C   1.0     0.708603     0.028737     0.678792  Biso 1.000000     C
    C   1.0     0.709398     0.528161     0.676029  Biso 1.000000     C
    C   1.0     0.200078     0.485743     0.612281  Biso 1.000000     C
    C   1.0     0.199577     0.986118     0.614202  Biso 1.000000     C
    C   1.0     0.699792     0.484763     0.610959  Biso 1.000000     C
    C   1.0     0.699326     0.985112     0.613993  Biso 1.000000     C
    C   1.0     0.137058     0.460334     0.581106  Biso 1.000000     C
    C   1.0     0.136548     0.960135     0.583295  Biso 1.000000     C
    C   1.0     0.636737     0.459289     0.579881  Biso 1.000000     C
    C   1.0     0.636428     0.959323     0.582594  Biso 1.000000     C
    C   1.0     0.084092     0.480394     0.612380  Biso 1.000000     C
    C   1.0     0.083468     0.980161     0.614288  Biso 1.000000     C
    C   1.0     0.583829     0.479541     0.611058  Biso 1.000000     C
    C   1.0     0.583287     0.979423     0.613273  Biso 1.000000     C
    C   1.0     0.093815     0.027892     0.674413  Biso 1.000000     C
    C   1.0     0.094450     0.527457     0.673294  Biso 1.000000     C
    C   1.0     0.593443     0.026923     0.673641  Biso 1.000000     C
    C   1.0     0.594321     0.526843     0.671711  Biso 1.000000     C
    C   1.0     0.161600     0.091485     0.783148  Biso 1.000000     C
    C   1.0     0.161873     0.589424     0.783314  Biso 1.000000     C
    C   1.0     0.660620     0.090272     0.782879  Biso 1.000000     C
    C   1.0     0.662190     0.589352     0.781085  Biso 1.000000     C
    C   1.0     0.255535     0.463682     0.576437  Biso 1.000000     C
    C   1.0     0.255197     0.964299     0.578670  Biso 1.000000     C
    C   1.0     0.755396     0.462872     0.575338  Biso 1.000000     C
    C   1.0     0.755038     0.963236     0.578813  Biso 1.000000     C
    C   1.0     0.015590     0.447481     0.587393  Biso 1.000000     C
    C   1.0     0.014955     0.946805     0.589605  Biso 1.000000     C
    C   1.0     0.515247     0.446776     0.586196  Biso 1.000000     C
    C   1.0     0.514812     0.946349     0.588221  Biso 1.000000     C
    C   1.0     0.345320     0.450785     0.206972  Biso 1.000000     C
    C   1.0     0.343665     0.951359     0.208026  Biso 1.000000     C
    C   1.0     0.845444     0.451015     0.205865  Biso 1.000000     C
    C   1.0     0.843722     0.950826     0.208034  Biso 1.000000     C
    C   1.0     0.292331     0.472611     0.177958  Biso 1.000000     C
    C   1.0     0.290444     0.972541     0.178464  Biso 1.000000     C
    C   1.0     0.792493     0.472621     0.176278  Biso 1.000000     C
    C   1.0     0.790427     0.971976     0.178529  Biso 1.000000     C
    C   1.0     0.299381     0.015308     0.113027  Biso 1.000000     C
    C   1.0     0.301415     0.515881     0.113028  Biso 1.000000     C
    C   1.0     0.799297     0.014854     0.113148  Biso 1.000000     C
    C   1.0     0.801973     0.516295     0.111713  Biso 1.000000     C
    C   1.0     0.362152     0.040605     0.081311  Biso 1.000000     C
    C   1.0     0.364182     0.540945     0.081144  Biso 1.000000     C
    C   1.0     0.862061     0.040212     0.081427  Biso 1.000000     C
    C   1.0     0.864987     0.542111     0.081006  Biso 1.000000     C
    C   1.0     0.415351     0.020582     0.111933  Biso 1.000000     C
    C   1.0     0.417279     0.520420     0.111363  Biso 1.000000     C
    C   1.0     0.915314     0.020232     0.111959  Biso 1.000000     C
    C   1.0     0.917994     0.521902     0.111927  Biso 1.000000     C
    C   1.0     0.407238     0.473353     0.172043  Biso 1.000000     C
    C   1.0     0.405542     0.973967     0.173052  Biso 1.000000     C
    C   1.0     0.907673     0.474309     0.171977  Biso 1.000000     C
    C   1.0     0.905568     0.973542     0.172980  Biso 1.000000     C
    C   1.0     0.340241     0.411578     0.282185  Biso 1.000000     C
    C   1.0     0.339161     0.912737     0.283671  Biso 1.000000     C
    C   1.0     0.840123     0.411201     0.280635  Biso 1.000000     C
    C   1.0     0.839481     0.912053     0.283603  Biso 1.000000     C
    C   1.0     0.243775     0.037154     0.077337  Biso 1.000000     C
    C   1.0     0.245700     0.538181     0.078314  Biso 1.000000     C
    C   1.0     0.743730     0.036873     0.077454  Biso 1.000000     C
    C   1.0     0.746454     0.538261     0.075983  Biso 1.000000     C
    C   1.0     0.483637     0.053165     0.086286  Biso 1.000000     C
    C   1.0     0.485730     0.552907     0.085868  Biso 1.000000     C
    C   1.0     0.983592     0.052897     0.086278  Biso 1.000000     C
    C   1.0     0.986495     0.555101     0.087601  Biso 1.000000     C
    C   1.0     0.450416     0.345312     0.791338  Biso 1.000000     C
    C   1.0     0.450728     0.843995     0.791512  Biso 1.000000     C
    C   1.0     0.950315     0.345532     0.791361  Biso 1.000000     C
    C   1.0     0.950684     0.843889     0.792173  Biso 1.000000     C
    C   1.0     0.471410     0.292053     0.820924  Biso 1.000000     C
    C   1.0     0.472533     0.791163     0.820969  Biso 1.000000     C
    C   1.0     0.971339     0.292276     0.820906  Biso 1.000000     C
    C   1.0     0.972704     0.791287     0.821989  Biso 1.000000     C
    C   1.0     0.014502     0.301238     0.886150  Biso 1.000000     C
    C   1.0     0.016534     0.801315     0.886659  Biso 1.000000     C
    C   1.0     0.514867     0.301146     0.885851  Biso 1.000000     C
    C   1.0     0.516082     0.800716     0.885884  Biso 1.000000     C
    C   1.0     0.040397     0.364083     0.917684  Biso 1.000000     C
    C   1.0     0.042017     0.864522     0.917275  Biso 1.000000     C
    C   1.0     0.541178     0.364086     0.916928  Biso 1.000000     C
    C   1.0     0.541630     0.863745     0.917044  Biso 1.000000     C
    C   1.0     0.020780     0.417448     0.886837  Biso 1.000000     C
    C   1.0     0.021342     0.917163     0.886187  Biso 1.000000     C
    C   1.0     0.521592     0.417407     0.885951  Biso 1.000000     C
    C   1.0     0.521307     0.916679     0.886137  Biso 1.000000     C
    C   1.0     0.474122     0.407452     0.825544  Biso 1.000000     C
    C   1.0     0.473790     0.906213     0.825786  Biso 1.000000     C
    C   1.0     0.973633     0.407598     0.826020  Biso 1.000000     C
    C   1.0     0.973646     0.906292     0.826018  Biso 1.000000     C
    C   1.0     0.410841     0.340254     0.716280  Biso 1.000000     C
    C   1.0     0.410861     0.838673     0.716616  Biso 1.000000     C
    C   1.0     0.911008     0.340446     0.716046  Biso 1.000000     C
    C   1.0     0.910829     0.838204     0.717212  Biso 1.000000     C
    C   1.0     0.035855     0.245269     0.921507  Biso 1.000000     C
    C   1.0     0.039049     0.746229     0.922567  Biso 1.000000     C
    C   1.0     0.536057     0.245172     0.921398  Biso 1.000000     C
    C   1.0     0.538214     0.745180     0.921245  Biso 1.000000     C
    C   1.0     0.054158     0.485803     0.912170  Biso 1.000000     C
    C   1.0     0.054149     0.985823     0.910606  Biso 1.000000     C
    C   1.0     0.554982     0.485880     0.910651  Biso 1.000000     C
    C   1.0     0.554160     0.985287     0.910878  Biso 1.000000     C
    C   1.0     0.049016     0.155742     0.291706  Biso 1.000000     C
    C   1.0     0.049993     0.657469     0.292171  Biso 1.000000     C
    C   1.0     0.549703     0.156295     0.291943  Biso 1.000000     C
    C   1.0     0.548590     0.655858     0.291058  Biso 1.000000     C
    C   1.0     0.027710     0.209003     0.320913  Biso 1.000000     C
    C   1.0     0.028492     0.710404     0.322040  Biso 1.000000     C
    C   1.0     0.528354     0.209481     0.321400  Biso 1.000000     C
    C   1.0     0.527064     0.709047     0.320216  Biso 1.000000     C
    C   1.0     0.485354     0.200485     0.386693  Biso 1.000000     C
    C   1.0     0.483794     0.700095     0.385250  Biso 1.000000     C
    C   1.0     0.984701     0.200219     0.386164  Biso 1.000000     C
    C   1.0     0.984856     0.700824     0.386695  Biso 1.000000     C
    C   1.0     0.459989     0.137682     0.418237  Biso 1.000000     C
    C   1.0     0.458301     0.637335     0.416829  Biso 1.000000     C
    C   1.0     0.959318     0.137571     0.418080  Biso 1.000000     C
    C   1.0     0.959000     0.637737     0.417212  Biso 1.000000     C
    C   1.0     0.480159     0.084527     0.387673  Biso 1.000000     C
    C   1.0     0.478567     0.584170     0.386501  Biso 1.000000     C
    C   1.0     0.979436     0.084317     0.387772  Biso 1.000000     C
    C   1.0     0.979213     0.584758     0.386136  Biso 1.000000     C
    C   1.0     0.026272     0.093954     0.326834  Biso 1.000000     C
    C   1.0     0.026729     0.595197     0.325940  Biso 1.000000     C
    C   1.0     0.527060     0.094411     0.326866  Biso 1.000000     C
    C   1.0     0.525713     0.593997     0.325954  Biso 1.000000     C
    C   1.0     0.087965     0.160178     0.216308  Biso 1.000000     C
    C   1.0     0.089805     0.662789     0.217391  Biso 1.000000     C
    C   1.0     0.588350     0.160616     0.216302  Biso 1.000000     C
    C   1.0     0.588059     0.660356     0.216006  Biso 1.000000     C
    C   1.0     0.463234     0.256014     0.422296  Biso 1.000000     C
    C   1.0     0.461883     0.755731     0.420909  Biso 1.000000     C
    C   1.0     0.962896     0.256000     0.421405  Biso 1.000000     C
    C   1.0     0.962922     0.756298     0.422676  Biso 1.000000     C
    C   1.0     0.447323     0.016201     0.412860  Biso 1.000000     C
    C   1.0     0.445992     0.515905     0.412111  Biso 1.000000     C
    C   1.0     0.946879     0.016144     0.413687  Biso 1.000000     C
    C   1.0     0.946300     0.516190     0.410617  Biso 1.000000     C
    O   1.0     0.116135     0.119210     0.798338  Biso 1.000000     O
    O   1.0     0.116142     0.616686     0.799067  Biso 1.000000     O
    O   1.0     0.614556     0.117206     0.797954  Biso 1.000000     O
    O   1.0     0.616662     0.616822     0.796898  Biso 1.000000     O
    O   1.0     0.209815     0.091406     0.830160  Biso 1.000000     O
    O   1.0     0.210044     0.589038     0.830251  Biso 1.000000     O
    O   1.0     0.709014     0.090960     0.829905  Biso 1.000000     O
    O   1.0     0.710640     0.589153     0.827707  Biso 1.000000     O
    O   1.0     0.309631     0.475096     0.614821  Biso 1.000000     O
    O   1.0     0.308880     0.974842     0.617887  Biso 1.000000     O
    O   1.0     0.809374     0.474390     0.613978  Biso 1.000000     O
    O   1.0     0.808854     0.974490     0.617827  Biso 1.000000     O
    O   1.0     0.244204     0.434219     0.508874  Biso 1.000000     O
    O   1.0     0.244420     0.936019     0.510379  Biso 1.000000     O
    O   1.0     0.744272     0.433614     0.507605  Biso 1.000000     O
    O   1.0     0.744236     0.934215     0.510933  Biso 1.000000     O
    O   1.0     0.472479     0.479231     0.597450  Biso 1.000000     O
    O   1.0     0.471753     0.978283     0.600458  Biso 1.000000     O
    O   1.0     0.972852     0.480257     0.597291  Biso 1.000000     O
    O   1.0     0.971890     0.978950     0.600872  Biso 1.000000     O
    O   1.0     0.004765     0.388692     0.562071  Biso 1.000000     O
    O   1.0     0.004514     0.888404     0.563007  Biso 1.000000     O
    O   1.0     0.504395     0.388352     0.559469  Biso 1.000000     O
    O   1.0     0.504390     0.888266     0.560521  Biso 1.000000     O
    O   1.0     0.386492     0.385325     0.298728  Biso 1.000000     O
    O   1.0     0.385345     0.886166     0.299490  Biso 1.000000     O
    O   1.0     0.885851     0.383930     0.296230  Biso 1.000000     O
    O   1.0     0.885986     0.885873     0.299275  Biso 1.000000     O
    O   1.0     0.291258     0.410914     0.328176  Biso 1.000000     O
    O   1.0     0.290903     0.912885     0.330446  Biso 1.000000     O
    O   1.0     0.791642     0.411073     0.327201  Biso 1.000000     O
    O   1.0     0.791195     0.911715     0.330546  Biso 1.000000     O
    O   1.0     0.189357     0.025207     0.114874  Biso 1.000000     O
    O   1.0     0.192229     0.527792     0.117761  Biso 1.000000     O
    O   1.0     0.689344     0.025106     0.115031  Biso 1.000000     O
    O   1.0     0.692585     0.527388     0.114602  Biso 1.000000     O
    O   1.0     0.255417     0.066991     0.010199  Biso 1.000000     O
    O   1.0     0.256213     0.566694     0.010304  Biso 1.000000     O
    O   1.0     0.755403     0.066748     0.010318  Biso 1.000000     O
    O   1.0     0.757616     0.566928     0.008075  Biso 1.000000     O
    O   1.0     0.026451     0.020409     0.096764  Biso 1.000000     O
    O   1.0     0.029368     0.522596     0.097722  Biso 1.000000     O
    O   1.0     0.526471     0.020706     0.096943  Biso 1.000000     O
    O   1.0     0.528465     0.520291     0.096454  Biso 1.000000     O
    O   1.0     0.494190     0.111491     0.059585  Biso 1.000000     O
    O   1.0     0.496559     0.611336     0.059483  Biso 1.000000     O
    O   1.0     0.994122     0.111281     0.059785  Biso 1.000000     O
    O   1.0     0.997091     0.613907     0.062511  Biso 1.000000     O
    O   1.0     0.383710     0.386054     0.700719  Biso 1.000000     O
    O   1.0     0.382944     0.884032     0.701709  Biso 1.000000     O
    O   1.0     0.884099     0.386368     0.700185  Biso 1.000000     O
    O   1.0     0.883150     0.883636     0.701695  Biso 1.000000     O
    O   1.0     0.410801     0.291771     0.669552  Biso 1.000000     O
    O   1.0     0.411216     0.790695     0.669318  Biso 1.000000     O
    O   1.0     0.910816     0.291860     0.669444  Biso 1.000000     O
    O   1.0     0.911053     0.789908     0.670328  Biso 1.000000     O
    O   1.0     0.025098     0.191638     0.882156  Biso 1.000000     O
    O   1.0     0.027446     0.691798     0.884915  Biso 1.000000     O
    O   1.0     0.525200     0.191467     0.882187  Biso 1.000000     O
    O   1.0     0.527767     0.691572     0.881915  Biso 1.000000     O
    O   1.0     0.064034     0.255749     0.989889  Biso 1.000000     O
    O   1.0     0.068940     0.758159     0.989828  Biso 1.000000     O
    O   1.0     0.564155     0.255723     0.989817  Biso 1.000000     O
    O   1.0     0.566610     0.755878     0.989486  Biso 1.000000     O
    O   1.0     0.021782     0.028567     0.899040  Biso 1.000000     O
    O   1.0     0.022047     0.529008     0.902273  Biso 1.000000     O
    O   1.0     0.521788     0.028054     0.899537  Biso 1.000000     O
    O   1.0     0.522797     0.528874     0.899510  Biso 1.000000     O
    O   1.0     0.112828     0.496027     0.937819  Biso 1.000000     O
    O   1.0     0.112541     0.996619     0.937357  Biso 1.000000     O
    O   1.0     0.613484     0.496418     0.937035  Biso 1.000000     O
    O   1.0     0.612579     0.996010     0.937564  Biso 1.000000     O
    O   1.0     0.114285     0.113780     0.200635  Biso 1.000000     O
    O   1.0     0.116824     0.616841     0.201870  Biso 1.000000     O
    O   1.0     0.614602     0.114175     0.200515  Biso 1.000000     O
    O   1.0     0.614458     0.613970     0.200506  Biso 1.000000     O
    O   1.0     0.088444     0.208626     0.169613  Biso 1.000000     O
    O   1.0     0.090396     0.711330     0.170815  Biso 1.000000     O
    O   1.0     0.588557     0.208917     0.169493  Biso 1.000000     O
    O   1.0     0.588880     0.708884     0.169304  Biso 1.000000     O
    O   1.0     0.474961     0.310321     0.384608  Biso 1.000000     O
    O   1.0     0.472616     0.809586     0.382360  Biso 1.000000     O
    O   1.0     0.974592     0.309974     0.382956  Biso 1.000000     O
    O   1.0     0.974843     0.810712     0.385142  Biso 1.000000     O
    O   1.0     0.433386     0.244423     0.489474  Biso 1.000000     O
    O   1.0     0.433312     0.744650     0.488936  Biso 1.000000     O
    O   1.0     0.933461     0.244883     0.488886  Biso 1.000000     O
    O   1.0     0.933171     0.744633     0.489855  Biso 1.000000     O
    O   1.0     0.478974     0.473349     0.402687  Biso 1.000000     O
    O   1.0     0.479928     0.973376     0.403040  Biso 1.000000     O
    O   1.0     0.978820     0.473434     0.399391  Biso 1.000000     O
    O   1.0     0.979380     0.973358     0.403152  Biso 1.000000     O
    O   1.0     0.388636     0.005691     0.438226  Biso 1.000000     O
    O   1.0     0.387296     0.505054     0.437581  Biso 1.000000     O
    O   1.0     0.888544     0.005638     0.440448  Biso 1.000000     O
    O   1.0     0.887881     0.505333     0.436979  Biso 1.000000     O
    O   1.0     0.130965     0.132563     0.999562  Biso 1.000000     O
    O   1.0     0.133488     0.633642     0.000000  Biso 1.000000     O
    O   1.0     0.631014     0.132452     0.999479  Biso 1.000000     O
    O   1.0     0.633708     0.632659     0.998964  Biso 1.000000     O
    O   1.0     0.367274     0.368109     0.499471  Biso 1.000000     O
    O   1.0     0.367470     0.869030     0.500472  Biso 1.000000     O
    O   1.0     0.868807     0.369001     0.498153  Biso 1.000000     O
    O   1.0     0.867984     0.868898     0.500746  Biso 1.000000     O
   Zn   1.0     0.069486     0.122019     0.903441  Biso 1.000000    Zn
   Zn   1.0     0.071708     0.622027     0.905860  Biso 1.000000    Zn
   Zn   1.0     0.569377     0.121687     0.903565  Biso 1.000000    Zn
   Zn   1.0     0.571998     0.621925     0.903177  Biso 1.000000    Zn
   Zn   1.0     0.186065     0.083591     0.943499  Biso 1.000000    Zn
   Zn   1.0     0.186519     0.583032     0.943818  Biso 1.000000    Zn
   Zn   1.0     0.686012     0.083347     0.943484  Biso 1.000000    Zn
   Zn   1.0     0.688089     0.583375     0.941281  Biso 1.000000    Zn
   Zn   1.0     0.430838     0.380304     0.405924  Biso 1.000000    Zn
   Zn   1.0     0.430436     0.880586     0.406008  Biso 1.000000    Zn
   Zn   1.0     0.930793     0.380297     0.403045  Biso 1.000000    Zn
   Zn   1.0     0.930536     0.880449     0.406248  Biso 1.000000    Zn
   Zn   1.0     0.313489     0.417417     0.441646  Biso 1.000000    Zn
   Zn   1.0     0.314005     0.919407     0.443957  Biso 1.000000    Zn
   Zn   1.0     0.813912     0.417422     0.440951  Biso 1.000000    Zn
   Zn   1.0     0.814206     0.919194     0.444117  Biso 1.000000    Zn
   Zn   1.0     0.379314     0.430802     0.593925  Biso 1.000000    Zn
   Zn   1.0     0.378358     0.930376     0.596684  Biso 1.000000    Zn
   Zn   1.0     0.880067     0.431125     0.593499  Biso 1.000000    Zn
   Zn   1.0     0.878747     0.930470     0.596720  Biso 1.000000    Zn
   Zn   1.0     0.416851     0.313931     0.556015  Biso 1.000000    Zn
   Zn   1.0     0.416855     0.814040     0.555930  Biso 1.000000    Zn
   Zn   1.0     0.917107     0.314261     0.555812  Biso 1.000000    Zn
   Zn   1.0     0.916912     0.814017     0.557244  Biso 1.000000    Zn
   Zn   1.0     0.119448     0.069440     0.093707  Biso 1.000000    Zn
   Zn   1.0     0.122367     0.571908     0.096316  Biso 1.000000    Zn
   Zn   1.0     0.619494     0.069450     0.093744  Biso 1.000000    Zn
   Zn   1.0     0.621545     0.569747     0.093527  Biso 1.000000    Zn
   Zn   1.0     0.080611     0.186029     0.055966  Biso 1.000000    Zn
   Zn   1.0     0.083703     0.688370     0.057272  Biso 1.000000    Zn
   Zn   1.0     0.580656     0.186010     0.055933  Biso 1.000000    Zn
   Zn   1.0     0.583239     0.686097     0.055681  Biso 1.000000    Zn
