#======================================================================

# CRYSTAL DATA

#----------------------------------------------------------------------

data_VESTA_phase_1


_pd_phase_name                         MOF
_cell_length_a                         21.12000
_cell_length_b                         21.12400
_cell_length_c                         16.66200
_cell_angle_alpha                      90.05700
_cell_angle_beta                       90.09600
_cell_angle_gamma                      104.78400
_symmetry_space_group_name_H-M         "P 1"
_symmetry_Int_Tables_number            1

loop_
_symmetry_equiv_pos_as_xyz
   "x, y, z"

loop_
   _atom_site_label
   _atom_site_occupancy
   _atom_site_fract_x
   _atom_site_fract_y
   _atom_site_fract_z
   _atom_site_adp_type
   _atom_site_B_iso_or_equiv
   _atom_site_type_symbol
    H   1.0     0.257521     0.046712     0.703331  Biso 1.000000     H
    H   1.0     0.256348     0.545292     0.705156  Biso 1.000000     H
    H   1.0     0.756745     0.046097     0.705206  Biso 1.000000     H
    H   1.0     0.756878     0.544969     0.702800  Biso 1.000000     H
    H   1.0     0.127962     0.423783     0.533131  Biso 1.000000     H
    H   1.0     0.128482     0.922845     0.533854  Biso 1.000000     H
    H   1.0     0.628005     0.422987     0.531655  Biso 1.000000     H
    H   1.0     0.628478     0.923298     0.534176  Biso 1.000000     H
    H   1.0     0.052726     0.043561     0.696684  Biso 1.000000     H
    H   1.0     0.052014     0.543925     0.696548  Biso 1.000000     H
    H   1.0     0.552480     0.044859     0.695672  Biso 1.000000     H
    H   1.0     0.552529     0.543536     0.695108  Biso 1.000000     H
    H   1.0     0.244056     0.455396     0.205679  Biso 1.000000     H
    H   1.0     0.243172     0.956255     0.204716  Biso 1.000000     H
    H   1.0     0.744208     0.455708     0.203076  Biso 1.000000     H
    H   1.0     0.742862     0.955350     0.205929  Biso 1.000000     H
    H   1.0     0.370519     0.078083     0.032854  Biso 1.000000     H
    H   1.0     0.371663     0.577218     0.034026  Biso 1.000000     H
    H   1.0     0.869878     0.075896     0.032737  Biso 1.000000     H
    H   1.0     0.873034     0.579614     0.034336  Biso 1.000000     H
    H   1.0     0.448051     0.455824     0.195341  Biso 1.000000     H
    H   1.0     0.447495     0.957851     0.195080  Biso 1.000000     H
    H   1.0     0.948684     0.457717     0.195613  Biso 1.000000     H
    H   1.0     0.947127     0.956653     0.195968  Biso 1.000000     H
    H   1.0     0.454515     0.243956     0.793879  Biso 1.000000     H
    H   1.0     0.455683     0.743800     0.793509  Biso 1.000000     H
    H   1.0     0.953827     0.244001     0.793028  Biso 1.000000     H
    H   1.0     0.954371     0.742733     0.796150  Biso 1.000000     H
    H   1.0     0.076286     0.371316     0.965277  Biso 1.000000     H
    H   1.0     0.078402     0.872458     0.964802  Biso 1.000000     H
    H   1.0     0.578033     0.371716     0.964785  Biso 1.000000     H
    H   1.0     0.578949     0.871843     0.964455  Biso 1.000000     H
    H   1.0     0.457665     0.448654     0.802483  Biso 1.000000     H
    H   1.0     0.457962     0.948275     0.802517  Biso 1.000000     H
    H   1.0     0.956033     0.448446     0.803021  Biso 1.000000     H
    H   1.0     0.956168     0.947179     0.802812  Biso 1.000000     H
    H   1.0     0.044379     0.256900     0.293267  Biso 1.000000     H
    H   1.0     0.046157     0.758702     0.296006  Biso 1.000000     H
    H   1.0     0.545009     0.256932     0.293552  Biso 1.000000     H
    H   1.0     0.543649     0.756299     0.292949  Biso 1.000000     H
    H   1.0     0.423296     0.129426     0.465348  Biso 1.000000     H
    H   1.0     0.421139     0.629103     0.464434  Biso 1.000000     H
    H   1.0     0.923364     0.130194     0.466377  Biso 1.000000     H
    H   1.0     0.922219     0.629819     0.464660  Biso 1.000000     H
    H   1.0     0.042898     0.052675     0.303949  Biso 1.000000     H
    H   1.0     0.043895     0.554151     0.303213  Biso 1.000000     H
    H   1.0     0.543864     0.052754     0.303417  Biso 1.000000     H
    H   1.0     0.541521     0.551890     0.302822  Biso 1.000000     H
    C   1.0     0.156230     0.051103     0.706318  Biso 1.000000     C
    C   1.0     0.155243     0.550370     0.707374  Biso 1.000000     C
    C   1.0     0.655766     0.051407     0.706716  Biso 1.000000     C
    C   1.0     0.655851     0.550095     0.705318  Biso 1.000000     C
    C   1.0     0.209190     0.029768     0.676259  Biso 1.000000     C
    C   1.0     0.208214     0.528933     0.677419  Biso 1.000000     C
    C   1.0     0.708631     0.029519     0.677499  Biso 1.000000     C
    C   1.0     0.708644     0.528512     0.675370  Biso 1.000000     C
    C   1.0     0.198756     0.485662     0.612041  Biso 1.000000     C
    C   1.0     0.199502     0.985918     0.611499  Biso 1.000000     C
    C   1.0     0.698938     0.485027     0.610311  Biso 1.000000     C
    C   1.0     0.699143     0.985611     0.612896  Biso 1.000000     C
    C   1.0     0.135711     0.460163     0.580829  Biso 1.000000     C
    C   1.0     0.136310     0.959595     0.581135  Biso 1.000000     C
    C   1.0     0.635855     0.459444     0.579279  Biso 1.000000     C
    C   1.0     0.636174     0.959981     0.581523  Biso 1.000000     C
    C   1.0     0.082750     0.480344     0.611954  Biso 1.000000     C
    C   1.0     0.083301     0.979474     0.612672  Biso 1.000000     C
    C   1.0     0.582951     0.479691     0.610564  Biso 1.000000     C
    C   1.0     0.583171     0.980467     0.612064  Biso 1.000000     C
    C   1.0     0.093819     0.027314     0.672757  Biso 1.000000     C
    C   1.0     0.093080     0.527521     0.672802  Biso 1.000000     C
    C   1.0     0.593538     0.028198     0.672357  Biso 1.000000     C
    C   1.0     0.593514     0.527067     0.671232  Biso 1.000000     C
    C   1.0     0.161532     0.090927     0.781411  Biso 1.000000     C
    C   1.0     0.160214     0.589352     0.783192  Biso 1.000000     C
    C   1.0     0.661532     0.091421     0.781660  Biso 1.000000     C
    C   1.0     0.661608     0.589652     0.780593  Biso 1.000000     C
    C   1.0     0.254158     0.463364     0.576326  Biso 1.000000     C
    C   1.0     0.255085     0.964091     0.575659  Biso 1.000000     C
    C   1.0     0.754573     0.463080     0.575011  Biso 1.000000     C
    C   1.0     0.754787     0.963293     0.578218  Biso 1.000000     C
    C   1.0     0.014178     0.447378     0.587278  Biso 1.000000     C
    C   1.0     0.014606     0.945892     0.589113  Biso 1.000000     C
    C   1.0     0.514294     0.446797     0.585973  Biso 1.000000     C
    C   1.0     0.514631     0.947467     0.586964  Biso 1.000000     C
    C   1.0     0.344942     0.449754     0.206814  Biso 1.000000     C
    C   1.0     0.344302     0.951263     0.206325  Biso 1.000000     C
    C   1.0     0.845332     0.450784     0.205567  Biso 1.000000     C
    C   1.0     0.843982     0.950284     0.207435  Biso 1.000000     C
    C   1.0     0.292010     0.471759     0.177752  Biso 1.000000     C
    C   1.0     0.291154     0.972741     0.176883  Biso 1.000000     C
    C   1.0     0.792439     0.472550     0.175976  Biso 1.000000     C
    C   1.0     0.790768     0.971575     0.177831  Biso 1.000000     C
    C   1.0     0.300239     0.016139     0.111858  Biso 1.000000     C
    C   1.0     0.301246     0.515443     0.113046  Biso 1.000000     C
    C   1.0     0.799744     0.014507     0.112313  Biso 1.000000     C
    C   1.0     0.802093     0.516632     0.111678  Biso 1.000000     C
    C   1.0     0.363072     0.041705     0.080412  Biso 1.000000     C
    C   1.0     0.364092     0.540698     0.081431  Biso 1.000000     C
    C   1.0     0.862520     0.039785     0.080585  Biso 1.000000     C
    C   1.0     0.865195     0.542707     0.081291  Biso 1.000000     C
    C   1.0     0.416215     0.021463     0.111028  Biso 1.000000     C
    C   1.0     0.417145     0.520044     0.111731  Biso 1.000000     C
    C   1.0     0.915713     0.019705     0.111291  Biso 1.000000     C
    C   1.0     0.918109     0.522304     0.112302  Biso 1.000000     C
    C   1.0     0.406976     0.472596     0.172156  Biso 1.000000     C
    C   1.0     0.406277     0.974254     0.171677  Biso 1.000000     C
    C   1.0     0.907640     0.474296     0.172002  Biso 1.000000     C
    C   1.0     0.905882     0.972930     0.172417  Biso 1.000000     C
    C   1.0     0.339584     0.409928     0.281814  Biso 1.000000     C
    C   1.0     0.339491     0.912044     0.281722  Biso 1.000000     C
    C   1.0     0.839950     0.410867     0.280383  Biso 1.000000     C
    C   1.0     0.839616     0.911631     0.283267  Biso 1.000000     C
    C   1.0     0.244527     0.038118     0.076422  Biso 1.000000     C
    C   1.0     0.245582     0.537930     0.078305  Biso 1.000000     C
    C   1.0     0.744229     0.036825     0.076840  Biso 1.000000     C
    C   1.0     0.746569     0.538678     0.076008  Biso 1.000000     C
    C   1.0     0.484564     0.054268     0.085824  Biso 1.000000     C
    C   1.0     0.485611     0.552695     0.086328  Biso 1.000000     C
    C   1.0     0.984000     0.052555     0.085885  Biso 1.000000     C
    C   1.0     0.986701     0.555632     0.088620  Biso 1.000000     C
    C   1.0     0.450231     0.345251     0.791831  Biso 1.000000     C
    C   1.0     0.450950     0.844987     0.791643  Biso 1.000000     C
    C   1.0     0.949162     0.345182     0.791626  Biso 1.000000     C
    C   1.0     0.949343     0.843815     0.793140  Biso 1.000000     C
    C   1.0     0.471452     0.292075     0.821440  Biso 1.000000     C
    C   1.0     0.472489     0.791926     0.821097  Biso 1.000000     C
    C   1.0     0.970529     0.292008     0.820945  Biso 1.000000     C
    C   1.0     0.971187     0.791108     0.823091  Biso 1.000000     C
    C   1.0     0.014021     0.301077     0.886043  Biso 1.000000     C
    C   1.0     0.015428     0.801121     0.887502  Biso 1.000000     C
    C   1.0     0.515194     0.301277     0.886283  Biso 1.000000     C
    C   1.0     0.516294     0.801240     0.885913  Biso 1.000000     C
    C   1.0     0.039841     0.363935     0.917637  Biso 1.000000     C
    C   1.0     0.041412     0.864364     0.917772  Biso 1.000000     C
    C   1.0     0.541390     0.364237     0.917370  Biso 1.000000     C
    C   1.0     0.542295     0.864243     0.917039  Biso 1.000000     C
    C   1.0     0.019803     0.417192     0.887042  Biso 1.000000     C
    C   1.0     0.020853     0.917085     0.886562  Biso 1.000000     C
    C   1.0     0.521507     0.417457     0.886427  Biso 1.000000     C
    C   1.0     0.522141     0.917345     0.886197  Biso 1.000000     C
    C   1.0     0.473862     0.407402     0.826060  Biso 1.000000     C
    C   1.0     0.474416     0.907126     0.825930  Biso 1.000000     C
    C   1.0     0.972416     0.407229     0.826371  Biso 1.000000     C
    C   1.0     0.972825     0.906284     0.826639  Biso 1.000000     C
    C   1.0     0.410632     0.340193     0.716557  Biso 1.000000     C
    C   1.0     0.411135     0.839958     0.716526  Biso 1.000000     C
    C   1.0     0.909525     0.340218     0.716396  Biso 1.000000     C
    C   1.0     0.909256     0.838155     0.718186  Biso 1.000000     C
    C   1.0     0.035734     0.245222     0.921325  Biso 1.000000     C
    C   1.0     0.037977     0.745910     0.923185  Biso 1.000000     C
    C   1.0     0.536994     0.245436     0.921458  Biso 1.000000     C
    C   1.0     0.538196     0.745476     0.921266  Biso 1.000000     C
    C   1.0     0.052848     0.485624     0.912449  Biso 1.000000     C
    C   1.0     0.054010     0.985770     0.910496  Biso 1.000000     C
    C   1.0     0.554924     0.485983     0.910858  Biso 1.000000     C
    C   1.0     0.555120     0.985977     0.910750  Biso 1.000000     C
    C   1.0     0.049325     0.155785     0.292110  Biso 1.000000     C
    C   1.0     0.050904     0.657528     0.293310  Biso 1.000000     C
    C   1.0     0.550192     0.155882     0.292043  Biso 1.000000     C
    C   1.0     0.548303     0.655098     0.291397  Biso 1.000000     C
    C   1.0     0.028017     0.209028     0.321412  Biso 1.000000     C
    C   1.0     0.029227     0.710434     0.323001  Biso 1.000000     C
    C   1.0     0.528614     0.208962     0.321444  Biso 1.000000     C
    C   1.0     0.526882     0.708300     0.320677  Biso 1.000000     C
    C   1.0     0.485258     0.199837     0.386510  Biso 1.000000     C
    C   1.0     0.483369     0.699288     0.385559  Biso 1.000000     C
    C   1.0     0.984953     0.200157     0.386735  Biso 1.000000     C
    C   1.0     0.985155     0.700767     0.387320  Biso 1.000000     C
    C   1.0     0.459750     0.136966     0.417891  Biso 1.000000     C
    C   1.0     0.457544     0.636460     0.416927  Biso 1.000000     C
    C   1.0     0.959540     0.137451     0.418620  Biso 1.000000     C
    C   1.0     0.959066     0.637633     0.417650  Biso 1.000000     C
    C   1.0     0.480120     0.083899     0.387339  Biso 1.000000     C
    C   1.0     0.477675     0.583245     0.386434  Biso 1.000000     C
    C   1.0     0.979661     0.084217     0.388202  Biso 1.000000     C
    C   1.0     0.979389     0.584682     0.386648  Biso 1.000000     C
    C   1.0     0.026568     0.093951     0.327234  Biso 1.000000     C
    C   1.0     0.027327     0.595176     0.326845  Biso 1.000000     C
    C   1.0     0.527368     0.093912     0.326777  Biso 1.000000     C
    C   1.0     0.525066     0.593126     0.326014  Biso 1.000000     C
    C   1.0     0.088175     0.160221     0.216487  Biso 1.000000     C
    C   1.0     0.091109     0.662989     0.218703  Biso 1.000000     C
    C   1.0     0.589295     0.160600     0.216555  Biso 1.000000     C
    C   1.0     0.588067     0.659924     0.216418  Biso 1.000000     C
    C   1.0     0.463079     0.255443     0.421890  Biso 1.000000     C
    C   1.0     0.461720     0.755105     0.421140  Biso 1.000000     C
    C   1.0     0.962995     0.255872     0.421992  Biso 1.000000     C
    C   1.0     0.962994     0.756215     0.423094  Biso 1.000000     C
    C   1.0     0.447268     0.015523     0.412365  Biso 1.000000     C
    C   1.0     0.444934     0.514901     0.411875  Biso 1.000000     C
    C   1.0     0.946994     0.015961     0.413918  Biso 1.000000     C
    C   1.0     0.946128     0.516110     0.410761  Biso 1.000000     C
    O   1.0     0.115571     0.117872     0.797104  Biso 1.000000     O
    O   1.0     0.114271     0.616272     0.799189  Biso 1.000000     O
    O   1.0     0.616033     0.118838     0.797727  Biso 1.000000     O
    O   1.0     0.616231     0.617338     0.796350  Biso 1.000000     O
    O   1.0     0.210120     0.091398     0.828231  Biso 1.000000     O
    O   1.0     0.208630     0.589164     0.829968  Biso 1.000000     O
    O   1.0     0.710443     0.091745     0.827978  Biso 1.000000     O
    O   1.0     0.710089     0.589320     0.827253  Biso 1.000000     O
    O   1.0     0.308360     0.474908     0.614631  Biso 1.000000     O
    O   1.0     0.308862     0.974853     0.614785  Biso 1.000000     O
    O   1.0     0.808430     0.474684     0.614080  Biso 1.000000     O
    O   1.0     0.808527     0.974639     0.617557  Biso 1.000000     O
    O   1.0     0.242637     0.433597     0.508803  Biso 1.000000     O
    O   1.0     0.244215     0.935628     0.507351  Biso 1.000000     O
    O   1.0     0.743776     0.433747     0.507214  Biso 1.000000     O
    O   1.0     0.744053     0.933856     0.510493  Biso 1.000000     O
    O   1.0     0.471437     0.479104     0.597342  Biso 1.000000     O
    O   1.0     0.471766     0.979930     0.597478  Biso 1.000000     O
    O   1.0     0.971446     0.480090     0.597170  Biso 1.000000     O
    O   1.0     0.971629     0.978047     0.600724  Biso 1.000000     O
    O   1.0     0.003358     0.388498     0.562158  Biso 1.000000     O
    O   1.0     0.003981     0.887276     0.563111  Biso 1.000000     O
    O   1.0     0.503527     0.388370     0.559211  Biso 1.000000     O
    O   1.0     0.503934     0.888886     0.560736  Biso 1.000000     O
    O   1.0     0.385833     0.383664     0.298459  Biso 1.000000     O
    O   1.0     0.386020     0.886160     0.298415  Biso 1.000000     O
    O   1.0     0.885661     0.383550     0.296077  Biso 1.000000     O
    O   1.0     0.886094     0.885460     0.299232  Biso 1.000000     O
    O   1.0     0.290196     0.408662     0.327508  Biso 1.000000     O
    O   1.0     0.290453     0.911075     0.327821  Biso 1.000000     O
    O   1.0     0.791459     0.410857     0.326944  Biso 1.000000     O
    O   1.0     0.791260     0.911379     0.330150  Biso 1.000000     O
    O   1.0     0.190498     0.026520     0.114821  Biso 1.000000     O
    O   1.0     0.192152     0.527605     0.117881  Biso 1.000000     O
    O   1.0     0.690012     0.025090     0.114832  Biso 1.000000     O
    O   1.0     0.692588     0.527347     0.114505  Biso 1.000000     O
    O   1.0     0.255649     0.067595     0.008870  Biso 1.000000     O
    O   1.0     0.256042     0.566545     0.010169  Biso 1.000000     O
    O   1.0     0.755866     0.066995     0.009770  Biso 1.000000     O
    O   1.0     0.757787     0.567800     0.008216  Biso 1.000000     O
    O   1.0     0.026971     0.020190     0.096512  Biso 1.000000     O
    O   1.0     0.029585     0.523293     0.100195  Biso 1.000000     O
    O   1.0     0.527407     0.021838     0.096936  Biso 1.000000     O
    O   1.0     0.528388     0.520061     0.096707  Biso 1.000000     O
    O   1.0     0.495206     0.112619     0.059168  Biso 1.000000     O
    O   1.0     0.496392     0.611203     0.060113  Biso 1.000000     O
    O   1.0     0.994408     0.111013     0.059554  Biso 1.000000     O
    O   1.0     0.997418     0.614209     0.062700  Biso 1.000000     O
    O   1.0     0.383414     0.385952     0.700928  Biso 1.000000     O
    O   1.0     0.384014     0.885818     0.700946  Biso 1.000000     O
    O   1.0     0.883063     0.386517     0.700668  Biso 1.000000     O
    O   1.0     0.881975     0.883856     0.702403  Biso 1.000000     O
    O   1.0     0.410657     0.291725     0.669776  Biso 1.000000     O
    O   1.0     0.410868     0.791451     0.669712  Biso 1.000000     O
    O   1.0     0.908563     0.291472     0.669719  Biso 1.000000     O
    O   1.0     0.908896     0.789549     0.671475  Biso 1.000000     O
    O   1.0     0.025085     0.191604     0.881901  Biso 1.000000     O
    O   1.0     0.025394     0.691386     0.885561  Biso 1.000000     O
    O   1.0     0.525372     0.191579     0.882391  Biso 1.000000     O
    O   1.0     0.527618     0.691858     0.881883  Biso 1.000000     O
    O   1.0     0.064012     0.255725     0.989799  Biso 1.000000     O
    O   1.0     0.068885     0.757848     0.989930  Biso 1.000000     O
    O   1.0     0.566368     0.256153     0.989243  Biso 1.000000     O
    O   1.0     0.566590     0.756017     0.989682  Biso 1.000000     O
    O   1.0     0.021653     0.028580     0.899077  Biso 1.000000     O
    O   1.0     0.020202     0.528472     0.902793  Biso 1.000000     O
    O   1.0     0.522328     0.028529     0.899464  Biso 1.000000     O
    O   1.0     0.522756     0.528992     0.899536  Biso 1.000000     O
    O   1.0     0.111604     0.496265     0.937936  Biso 1.000000     O
    O   1.0     0.112603     0.996561     0.936747  Biso 1.000000     O
    O   1.0     0.613484     0.496548     0.937207  Biso 1.000000     O
    O   1.0     0.613654     0.997120     0.937088  Biso 1.000000     O
    O   1.0     0.114403     0.113786     0.200671  Biso 1.000000     O
    O   1.0     0.118489     0.617300     0.203291  Biso 1.000000     O
    O   1.0     0.616226     0.114652     0.200749  Biso 1.000000     O
    O   1.0     0.614602     0.613661     0.200816  Biso 1.000000     O
    O   1.0     0.088516     0.208636     0.169638  Biso 1.000000     O
    O   1.0     0.091467     0.711502     0.171944  Biso 1.000000     O
    O   1.0     0.589040     0.208863     0.169695  Biso 1.000000     O
    O   1.0     0.588893     0.708577     0.169765  Biso 1.000000     O
    O   1.0     0.474572     0.309510     0.383559  Biso 1.000000     O
    O   1.0     0.472482     0.808843     0.382216  Biso 1.000000     O
    O   1.0     0.974749     0.309948     0.383636  Biso 1.000000     O
    O   1.0     0.974903     0.810554     0.385286  Biso 1.000000     O
    O   1.0     0.433451     0.244242     0.489380  Biso 1.000000     O
    O   1.0     0.433354     0.744343     0.489441  Biso 1.000000     O
    O   1.0     0.933338     0.244639     0.489450  Biso 1.000000     O
    O   1.0     0.933048     0.744562     0.490278  Biso 1.000000     O
    O   1.0     0.478055     0.472451     0.402560  Biso 1.000000     O
    O   1.0     0.480102     0.972807     0.402787  Biso 1.000000     O
    O   1.0     0.978477     0.473209     0.399508  Biso 1.000000     O
    O   1.0     0.979557     0.973161     0.403345  Biso 1.000000     O
    O   1.0     0.388430     0.004728     0.437341  Biso 1.000000     O
    O   1.0     0.386125     0.503880     0.437074  Biso 1.000000     O
    O   1.0     0.888585     0.005361     0.440417  Biso 1.000000     O
    O   1.0     0.887603     0.505418     0.436786  Biso 1.000000     O
    O   1.0     0.131234     0.132562     0.998911  Biso 1.000000     O
    O   1.0     0.132984     0.633439     0.000000  Biso 1.000000     O
    O   1.0     0.632518     0.132822     0.998988  Biso 1.000000     O
    O   1.0     0.633568     0.632736     0.998964  Biso 1.000000     O
    O   1.0     0.366463     0.367650     0.499357  Biso 1.000000     O
    O   1.0     0.367011     0.867982     0.499421  Biso 1.000000     O
    O   1.0     0.867934     0.368697     0.498080  Biso 1.000000     O
    O   1.0     0.867820     0.868465     0.500967  Biso 1.000000     O
   Zn   1.0     0.069530     0.121967     0.903016  Biso 1.000000    Zn
   Zn   1.0     0.069561     0.621537     0.906290  Biso 1.000000    Zn
   Zn   1.0     0.569634     0.121888     0.903547  Biso 1.000000    Zn
   Zn   1.0     0.571847     0.622076     0.903061  Biso 1.000000    Zn
   Zn   1.0     0.186071     0.083637     0.941526  Biso 1.000000    Zn
   Zn   1.0     0.186146     0.583088     0.943841  Biso 1.000000    Zn
   Zn   1.0     0.687935     0.085272     0.941507  Biso 1.000000    Zn
   Zn   1.0     0.687938     0.583441     0.941162  Biso 1.000000    Zn
   Zn   1.0     0.430415     0.379332     0.405902  Biso 1.000000    Zn
   Zn   1.0     0.430662     0.880195     0.405584  Biso 1.000000    Zn
   Zn   1.0     0.930583     0.380123     0.403167  Biso 1.000000    Zn
   Zn   1.0     0.930634     0.880312     0.406396  Biso 1.000000    Zn
   Zn   1.0     0.311757     0.416540     0.441456  Biso 1.000000    Zn
   Zn   1.0     0.313591     0.917597     0.441311  Biso 1.000000    Zn
   Zn   1.0     0.813763     0.417791     0.440823  Biso 1.000000    Zn
   Zn   1.0     0.814025     0.918198     0.443984  Biso 1.000000    Zn
   Zn   1.0     0.378079     0.430521     0.593831  Biso 1.000000    Zn
   Zn   1.0     0.378605     0.930647     0.594054  Biso 1.000000    Zn
   Zn   1.0     0.878354     0.430706     0.593618  Biso 1.000000    Zn
   Zn   1.0     0.878226     0.930349     0.596799  Biso 1.000000    Zn
   Zn   1.0     0.416615     0.313804     0.555943  Biso 1.000000    Zn
   Zn   1.0     0.416853     0.813930     0.556005  Biso 1.000000    Zn
   Zn   1.0     0.916609     0.314157     0.555883  Biso 1.000000    Zn
   Zn   1.0     0.916680     0.813705     0.558255  Biso 1.000000    Zn
   Zn   1.0     0.119762     0.069548     0.093490  Biso 1.000000    Zn
   Zn   1.0     0.122464     0.572010     0.096872  Biso 1.000000    Zn
   Zn   1.0     0.620456     0.069571     0.093506  Biso 1.000000    Zn
   Zn   1.0     0.621444     0.569648     0.093551  Biso 1.000000    Zn
   Zn   1.0     0.080775     0.185911     0.055811  Biso 1.000000    Zn
   Zn   1.0     0.084910     0.688762     0.058288  Biso 1.000000    Zn
   Zn   1.0     0.582873     0.186461     0.055869  Biso 1.000000    Zn
   Zn   1.0     0.583152     0.686086     0.055819  Biso 1.000000    Zn
