#======================================================================

# CRYSTAL DATA

#----------------------------------------------------------------------

data_VESTA_phase_1


_pd_phase_name                         MOF
_cell_length_a                         20.67600
_cell_length_b                         13.55600
_cell_length_c                         13.70800
_cell_angle_alpha                      73.07000
_cell_angle_beta                       66.12300
_cell_angle_gamma                      69.91800
_symmetry_space_group_name_H-M         "P 1"
_symmetry_Int_Tables_number            1

loop_
_symmetry_equiv_pos_as_xyz
   "x, y, z"

loop_
   _atom_site_label
   _atom_site_occupancy
   _atom_site_fract_x
   _atom_site_fract_y
   _atom_site_fract_z
   _atom_site_adp_type
   _atom_site_B_iso_or_equiv
   _atom_site_type_symbol
    H   1.0     0.412225     0.374215     0.336784  Biso 1.000000     H
    H   1.0     0.912235     0.374216     0.336786  Biso 1.000000     H
    H   1.0     0.351085     0.557930     0.379963  Biso 1.000000     H
    H   1.0     0.851097     0.557931     0.379965  Biso 1.000000     H
    H   1.0     0.292014     0.428837     0.719589  Biso 1.000000     H
    H   1.0     0.792026     0.428837     0.719592  Biso 1.000000     H
    H   1.0     0.354035     0.243812     0.678009  Biso 1.000000     H
    H   1.0     0.854045     0.243811     0.678011  Biso 1.000000     H
    H   1.0     0.330623     0.124422     0.126792  Biso 1.000000     H
    H   1.0     0.830630     0.124424     0.126792  Biso 1.000000     H
    H   1.0     0.375897     0.075067     0.943901  Biso 1.000000     H
    H   1.0     0.875902     0.075068     0.943901  Biso 1.000000     H
    H   1.0     0.295507     0.795197     0.087925  Biso 1.000000     H
    H   1.0     0.795511     0.795200     0.087925  Biso 1.000000     H
    H   1.0     0.248577     0.844352     0.270483  Biso 1.000000     H
    H   1.0     0.748582     0.844353     0.270485  Biso 1.000000     H
    H   1.0     0.087794     0.625768     0.663177  Biso 1.000000     H
    H   1.0     0.587804     0.625769     0.663179  Biso 1.000000     H
    H   1.0     0.148931     0.442052     0.620000  Biso 1.000000     H
    H   1.0     0.648943     0.442053     0.620003  Biso 1.000000     H
    H   1.0     0.208003     0.571143     0.280373  Biso 1.000000     H
    H   1.0     0.708015     0.571143     0.280375  Biso 1.000000     H
    H   1.0     0.145984     0.756169     0.321951  Biso 1.000000     H
    H   1.0     0.645995     0.756169     0.321954  Biso 1.000000     H
    H   1.0     0.169398     0.875558     0.873169  Biso 1.000000     H
    H   1.0     0.669405     0.875559     0.873169  Biso 1.000000     H
    H   1.0     0.124126     0.924914     0.056060  Biso 1.000000     H
    H   1.0     0.624131     0.924915     0.056060  Biso 1.000000     H
    H   1.0     0.204517     0.204783     0.912034  Biso 1.000000     H
    H   1.0     0.704523     0.204783     0.912035  Biso 1.000000     H
    H   1.0     0.251445     0.155629     0.729475  Biso 1.000000     H
    H   1.0     0.751452     0.155629     0.729476  Biso 1.000000     H
    H   1.0     0.329510     0.768943     0.816347  Biso 1.000000     H
    H   1.0     0.829521     0.768940     0.816348  Biso 1.000000     H
    H   1.0     0.286351     0.763665     0.735452  Biso 1.000000     H
    H   1.0     0.786361     0.763665     0.735453  Biso 1.000000     H
    H   1.0     0.421133     0.711511     0.661092  Biso 1.000000     H
    H   1.0     0.921142     0.711509     0.661091  Biso 1.000000     H
    H   1.0     0.419754     0.603415     0.772079  Biso 1.000000     H
    H   1.0     0.919763     0.603414     0.772078  Biso 1.000000     H
    H   1.0     0.379791     0.607295     0.676074  Biso 1.000000     H
    H   1.0     0.879800     0.607295     0.676074  Biso 1.000000     H
    H   1.0     0.224776     0.699354     0.922047  Biso 1.000000     H
    H   1.0     0.724785     0.699354     0.922047  Biso 1.000000     H
    H   1.0     0.261926     0.596426     0.841983  Biso 1.000000     H
    H   1.0     0.761935     0.596426     0.841981  Biso 1.000000     H
    H   1.0     0.307724     0.601597     0.927953  Biso 1.000000     H
    H   1.0     0.807733     0.601595     0.927953  Biso 1.000000     H
    H   1.0     0.480820     0.908210     0.410035  Biso 1.000000     H
    H   1.0     0.980828     0.908210     0.410036  Biso 1.000000     H
    H   1.0     0.389147     0.937867     0.443720  Biso 1.000000     H
    H   1.0     0.889155     0.937867     0.443721  Biso 1.000000     H
    H   1.0     0.431882     0.045192     0.276686  Biso 1.000000     H
    H   1.0     0.931890     0.045192     0.276687  Biso 1.000000     H
    H   1.0     0.004279     0.933953     0.226392  Biso 1.000000     H
    H   1.0     0.504288     0.933953     0.226391  Biso 1.000000     H
    H   1.0     0.411019     0.941226     0.247412  Biso 1.000000     H
    H   1.0     0.911028     0.941227     0.247413  Biso 1.000000     H
    H   1.0     0.439982     0.749945     0.488035  Biso 1.000000     H
    H   1.0     0.939990     0.749945     0.488036  Biso 1.000000     H
    H   1.0     0.396440     0.779580     0.389609  Biso 1.000000     H
    H   1.0     0.896448     0.779581     0.389610  Biso 1.000000     H
    H   1.0     0.494939     0.749240     0.348776  Biso 1.000000     H
    H   1.0     0.994947     0.749240     0.348776  Biso 1.000000     H
    H   1.0     0.170508     0.231040     0.183612  Biso 1.000000     H
    H   1.0     0.670518     0.231037     0.183614  Biso 1.000000     H
    H   1.0     0.213668     0.236315     0.264508  Biso 1.000000     H
    H   1.0     0.713677     0.236315     0.264509  Biso 1.000000     H
    H   1.0     0.078887     0.288469     0.338871  Biso 1.000000     H
    H   1.0     0.578896     0.288468     0.338871  Biso 1.000000     H
    H   1.0     0.080264     0.396565     0.227885  Biso 1.000000     H
    H   1.0     0.580273     0.396563     0.227884  Biso 1.000000     H
    H   1.0     0.120228     0.392684     0.323889  Biso 1.000000     H
    H   1.0     0.620236     0.392684     0.323889  Biso 1.000000     H
    H   1.0     0.275243     0.300629     0.077914  Biso 1.000000     H
    H   1.0     0.775252     0.300628     0.077914  Biso 1.000000     H
    H   1.0     0.238093     0.403555     0.157981  Biso 1.000000     H
    H   1.0     0.738101     0.403556     0.157979  Biso 1.000000     H
    H   1.0     0.192294     0.398386     0.072009  Biso 1.000000     H
    H   1.0     0.692303     0.398383     0.072009  Biso 1.000000     H
    H   1.0     0.019199     0.091770     0.589927  Biso 1.000000     H
    H   1.0     0.519206     0.091770     0.589928  Biso 1.000000     H
    H   1.0     0.110871     0.062113     0.556243  Biso 1.000000     H
    H   1.0     0.610879     0.062113     0.556244  Biso 1.000000     H
    H   1.0     0.068136     0.954788     0.723277  Biso 1.000000     H
    H   1.0     0.568143     0.954789     0.723278  Biso 1.000000     H
    H   1.0     0.495739     0.066029     0.773573  Biso 1.000000     H
    H   1.0     0.995747     0.066028     0.773572  Biso 1.000000     H
    H   1.0     0.088999     0.058754     0.752550  Biso 1.000000     H
    H   1.0     0.589007     0.058753     0.752551  Biso 1.000000     H
    H   1.0     0.060036     0.250035     0.511927  Biso 1.000000     H
    H   1.0     0.560044     0.250035     0.511928  Biso 1.000000     H
    H   1.0     0.103579     0.220400     0.610353  Biso 1.000000     H
    H   1.0     0.603587     0.220400     0.610354  Biso 1.000000     H
    H   1.0     0.005080     0.250741     0.651187  Biso 1.000000     H
    H   1.0     0.505088     0.250741     0.651188  Biso 1.000000     H
    C   1.0     0.387497     0.296824     0.504773  Biso 1.000000     C
    C   1.0     0.887506     0.296825     0.504774  Biso 1.000000     C
    C   1.0     0.386690     0.385950     0.420859  Biso 1.000000     C
    C   1.0     0.886701     0.385951     0.420860  Biso 1.000000     C
    C   1.0     0.352784     0.488598     0.444546  Biso 1.000000     C
    C   1.0     0.852794     0.488599     0.444548  Biso 1.000000     C
    C   1.0     0.318744     0.504439     0.552476  Biso 1.000000     C
    C   1.0     0.818755     0.504439     0.552479  Biso 1.000000     C
    C   1.0     0.319419     0.415523     0.636125  Biso 1.000000     C
    C   1.0     0.819429     0.415523     0.636128  Biso 1.000000     C
    C   1.0     0.353474     0.312804     0.612741  Biso 1.000000     C
    C   1.0     0.853485     0.312804     0.612743  Biso 1.000000     C
    C   1.0     0.280496     0.614222     0.580196  Biso 1.000000     C
    C   1.0     0.780506     0.614222     0.580198  Biso 1.000000     C
    C   1.0     0.284039     0.990338     0.210418  Biso 1.000000     C
    C   1.0     0.784051     0.990333     0.210419  Biso 1.000000     C
    C   1.0     0.321629     0.053369     0.117860  Biso 1.000000     C
    C   1.0     0.821637     0.053369     0.117861  Biso 1.000000     C
    C   1.0     0.347994     0.025100     0.016074  Biso 1.000000     C
    C   1.0     0.847999     0.025101     0.016075  Biso 1.000000     C
    C   1.0     0.338019     0.932413     0.004670  Biso 1.000000     C
    C   1.0     0.838001     0.932435     0.004665  Biso 1.000000     C
    C   1.0     0.302502     0.867486     0.097511  Biso 1.000000     C
    C   1.0     0.802508     0.867489     0.097511  Biso 1.000000     C
    C   1.0     0.275901     0.895846     0.199116  Biso 1.000000     C
    C   1.0     0.775908     0.895845     0.199117  Biso 1.000000     C
    C   1.0     0.361724     0.904279     0.894826  Biso 1.000000     C
    C   1.0     0.861762     0.904254     0.894828  Biso 1.000000     C
    C   1.0     0.112523     0.703157     0.495188  Biso 1.000000     C
    C   1.0     0.612532     0.703158     0.495190  Biso 1.000000     C
    C   1.0     0.113328     0.614032     0.579103  Biso 1.000000     C
    C   1.0     0.613339     0.614033     0.579105  Biso 1.000000     C
    C   1.0     0.147234     0.511383     0.555416  Biso 1.000000     C
    C   1.0     0.647244     0.511384     0.555419  Biso 1.000000     C
    C   1.0     0.181273     0.495542     0.447486  Biso 1.000000     C
    C   1.0     0.681285     0.495542     0.447489  Biso 1.000000     C
    C   1.0     0.180600     0.584458     0.363836  Biso 1.000000     C
    C   1.0     0.680610     0.584458     0.363839  Biso 1.000000     C
    C   1.0     0.146544     0.687177     0.387220  Biso 1.000000     C
    C   1.0     0.646555     0.687177     0.387222  Biso 1.000000     C
    C   1.0     0.219521     0.385759     0.419768  Biso 1.000000     C
    C   1.0     0.719530     0.385759     0.419771  Biso 1.000000     C
    C   1.0     0.215979     0.009646     0.789541  Biso 1.000000     C
    C   1.0     0.715989     0.009643     0.789543  Biso 1.000000     C
    C   1.0     0.178391     0.946612     0.882100  Biso 1.000000     C
    C   1.0     0.678399     0.946612     0.882101  Biso 1.000000     C
    C   1.0     0.152030     0.974880     0.983886  Biso 1.000000     C
    C   1.0     0.652035     0.974882     0.983887  Biso 1.000000     C
    C   1.0     0.162021     0.067553     0.995293  Biso 1.000000     C
    C   1.0     0.662010     0.067569     0.995291  Biso 1.000000     C
    C   1.0     0.197521     0.132493     0.902448  Biso 1.000000     C
    C   1.0     0.697527     0.132494     0.902449  Biso 1.000000     C
    C   1.0     0.224120     0.104136     0.800843  Biso 1.000000     C
    C   1.0     0.724127     0.104135     0.800844  Biso 1.000000     C
    C   1.0     0.138277     0.095722     0.105131  Biso 1.000000     C
    C   1.0     0.638307     0.095703     0.105134  Biso 1.000000     C
    C   1.0     0.389598     0.655254     0.718026  Biso 1.000000     C
    C   1.0     0.889606     0.655254     0.718026  Biso 1.000000     C
    C   1.0     0.275182     0.648038     0.875590  Biso 1.000000     C
    C   1.0     0.775191     0.648036     0.875592  Biso 1.000000     C
    C   1.0     0.446831     0.959590     0.276592  Biso 1.000000     C
    C   1.0     0.946839     0.959590     0.276593  Biso 1.000000     C
    C   1.0     0.442505     0.786981     0.404749  Biso 1.000000     C
    C   1.0     0.942513     0.786981     0.404749  Biso 1.000000     C
    C   1.0     0.110422     0.344725     0.281936  Biso 1.000000     C
    C   1.0     0.610430     0.344725     0.281936  Biso 1.000000     C
    C   1.0     0.224837     0.351945     0.124371  Biso 1.000000     C
    C   1.0     0.724845     0.351943     0.124371  Biso 1.000000     C
    C   1.0     0.053188     0.040391     0.723371  Biso 1.000000     C
    C   1.0     0.553196     0.040391     0.723372  Biso 1.000000     C
    C   1.0     0.057513     0.212999     0.595214  Biso 1.000000     C
    C   1.0     0.557521     0.212999     0.595215  Biso 1.000000     C
    N   1.0     0.318117     0.716648     0.784310  Biso 1.000000     N
    N   1.0     0.818126     0.716646     0.784312  Biso 1.000000     N
    N   1.0     0.438156     0.901888     0.389799  Biso 1.000000     N
    N   1.0     0.938164     0.901888     0.389800  Biso 1.000000     N
    N   1.0     0.181903     0.283334     0.215650  Biso 1.000000     N
    N   1.0     0.681911     0.283332     0.215651  Biso 1.000000     N
    N   1.0     0.061862     0.098092     0.610164  Biso 1.000000     N
    N   1.0     0.561870     0.098092     0.610165  Biso 1.000000     N
    O   1.0     0.381232     0.130483     0.436319  Biso 1.000000     O
    O   1.0     0.881240     0.130484     0.436320  Biso 1.000000     O
    O   1.0     0.005141     0.167434     0.385738  Biso 1.000000     O
    O   1.0     0.505150     0.167432     0.385737  Biso 1.000000     O
    O   1.0     0.440519     0.090517     0.581042  Biso 1.000000     O
    O   1.0     0.940528     0.090517     0.581042  Biso 1.000000     O
    O   1.0     0.282690     0.692856     0.498287  Biso 1.000000     O
    O   1.0     0.782699     0.692856     0.498290  Biso 1.000000     O
    O   1.0     0.249589     0.625924     0.677223  Biso 1.000000     O
    O   1.0     0.749595     0.625924     0.677226  Biso 1.000000     O
    O   1.0     0.162206     0.061011     0.379034  Biso 1.000000     O
    O   1.0     0.662213     0.061010     0.379042  Biso 1.000000     O
    O   1.0     0.274161     0.124692     0.329962  Biso 1.000000     O
    O   1.0     0.774174     0.124687     0.329964  Biso 1.000000     O
    O   1.0     0.276257     0.927814     0.418104  Biso 1.000000     O
    O   1.0     0.776266     0.927814     0.418102  Biso 1.000000     O
    O   1.0     0.390021     0.971693     0.813096  Biso 1.000000     O
    O   1.0     0.890022     0.971699     0.813097  Biso 1.000000     O
    O   1.0     0.352064     0.819811     0.888906  Biso 1.000000     O
    O   1.0     0.852069     0.819814     0.888903  Biso 1.000000     O
    O   1.0     0.118787     0.869503     0.563639  Biso 1.000000     O
    O   1.0     0.618795     0.869505     0.563640  Biso 1.000000     O
    O   1.0     0.494879     0.832549     0.614224  Biso 1.000000     O
    O   1.0     0.994888     0.832547     0.614223  Biso 1.000000     O
    O   1.0     0.059500     0.909464     0.418917  Biso 1.000000     O
    O   1.0     0.559509     0.909464     0.418918  Biso 1.000000     O
    O   1.0     0.217327     0.307125     0.501676  Biso 1.000000     O
    O   1.0     0.717336     0.307126     0.501680  Biso 1.000000     O
    O   1.0     0.250432     0.374056     0.322741  Biso 1.000000     O
    O   1.0     0.750437     0.374055     0.322743  Biso 1.000000     O
    O   1.0     0.337815     0.938971     0.620921  Biso 1.000000     O
    O   1.0     0.837822     0.938971     0.620928  Biso 1.000000     O
    O   1.0     0.225857     0.875292     0.669996  Biso 1.000000     O
    O   1.0     0.725869     0.875288     0.669998  Biso 1.000000     O
    O   1.0     0.223762     0.072167     0.581858  Biso 1.000000     O
    O   1.0     0.723771     0.072167     0.581856  Biso 1.000000     O
    O   1.0     0.110007     0.028286     0.186863  Biso 1.000000     O
    O   1.0     0.610010     0.028290     0.186864  Biso 1.000000     O
    O   1.0     0.147961     0.180171     0.111051  Biso 1.000000     O
    O   1.0     0.647966     0.180173     0.111050  Biso 1.000000     O
    P   1.0     0.430184     0.163302     0.474054  Biso 1.000000     P
    P   1.0     0.930192     0.163303     0.474055  Biso 1.000000     P
    P   1.0     0.246742     0.026557     0.343795  Biso 1.000000     P
    P   1.0     0.746749     0.026557     0.343795  Biso 1.000000     P
    P   1.0     0.069836     0.836680     0.525905  Biso 1.000000     P
    P   1.0     0.569844     0.836681     0.525907  Biso 1.000000     P
    P   1.0     0.253278     0.973424     0.656165  Biso 1.000000     P
    P   1.0     0.753286     0.973424     0.656166  Biso 1.000000     P
   Zn   1.0     0.276263     0.169234     0.455512  Biso 1.000000    Zn
   Zn   1.0     0.776272     0.169235     0.455514  Biso 1.000000    Zn
   Zn   1.0     0.087357     0.045441     0.335615  Biso 1.000000    Zn
   Zn   1.0     0.587368     0.045439     0.335616  Biso 1.000000    Zn
   Zn   1.0     0.223755     0.830749     0.544447  Biso 1.000000    Zn
   Zn   1.0     0.723764     0.830750     0.544448  Biso 1.000000    Zn
   Zn   1.0     0.412660     0.954542     0.664346  Biso 1.000000    Zn
   Zn   1.0     0.912671     0.954540     0.664347  Biso 1.000000    Zn
