#======================================================================

# CRYSTAL DATA

#----------------------------------------------------------------------

data_VESTA_phase_1


_pd_phase_name                         MOF
_cell_length_a                         13.91800
_cell_length_b                         19.19000
_cell_length_c                         19.67300
_cell_angle_alpha                      89.99800
_cell_angle_beta                       90.00400
_cell_angle_gamma                      90.13800
_symmetry_space_group_name_H-M         "P 1"
_symmetry_Int_Tables_number            1

loop_
_symmetry_equiv_pos_as_xyz
   "x, y, z"

loop_
   _atom_site_label
   _atom_site_occupancy
   _atom_site_fract_x
   _atom_site_fract_y
   _atom_site_fract_z
   _atom_site_adp_type
   _atom_site_B_iso_or_equiv
   _atom_site_type_symbol
    H   1.0     0.432730     0.678471     0.210267  Biso 1.000000     H
    H   1.0     0.443895     0.774030     0.124526  Biso 1.000000     H
    H   1.0     0.384985     0.924812     0.280150  Biso 1.000000     H
    H   1.0     0.380198     0.828215     0.367305  Biso 1.000000     H
    H   1.0     0.050893     0.075728     0.096160  Biso 1.000000     H
    H   1.0     0.122250     0.930738     0.938024  Biso 1.000000     H
    H   1.0     0.385562     0.794625     0.028426  Biso 1.000000     H
    H   1.0     0.355196     0.679556     0.969319  Biso 1.000000     H
    H   1.0     0.332109     0.680481     0.842743  Biso 1.000000     H
    H   1.0     0.323547     0.000000     0.687432  Biso 1.000000     H
    H   1.0     0.339139     0.106367     0.765380  Biso 1.000000     H
    H   1.0     0.377037     0.086058     0.887081  Biso 1.000000     H
    H   1.0     0.576085     0.905982     0.000000  Biso 1.000000     H
    H   1.0     0.567719     0.821529     0.710261  Biso 1.000000     H
    H   1.0     0.556589     0.726009     0.624478  Biso 1.000000     H
    H   1.0     0.614910     0.575120     0.780134  Biso 1.000000     H
    H   1.0     0.619682     0.671681     0.867322  Biso 1.000000     H
    H   1.0     0.949144     0.424321     0.596242  Biso 1.000000     H
    H   1.0     0.877689     0.569216     0.438031  Biso 1.000000     H
    H   1.0     0.614406     0.705449     0.528358  Biso 1.000000     H
    H   1.0     0.644773     0.820500     0.469201  Biso 1.000000     H
    H   1.0     0.667885     0.819525     0.342627  Biso 1.000000     H
    H   1.0     0.676252     0.498773     0.187448  Biso 1.000000     H
    H   1.0     0.660511     0.393631     0.265426  Biso 1.000000     H
    H   1.0     0.622713     0.414002     0.387134  Biso 1.000000     H
    H   1.0     0.423844     0.594017     0.500099  Biso 1.000000     H
    H   1.0     0.567250     0.321511     0.789741  Biso 1.000000     H
    H   1.0     0.556082     0.225951     0.875482  Biso 1.000000     H
    H   1.0     0.614995     0.075169     0.719858  Biso 1.000000     H
    H   1.0     0.619787     0.171767     0.632703  Biso 1.000000     H
    H   1.0     0.949074     0.924237     0.903848  Biso 1.000000     H
    H   1.0     0.877722     0.069231     0.061981  Biso 1.000000     H
    H   1.0     0.614414     0.205356     0.971581  Biso 1.000000     H
    H   1.0     0.644783     0.320425     0.030690  Biso 1.000000     H
    H   1.0     0.667877     0.319499     0.157263  Biso 1.000000     H
    H   1.0     0.676425    -0.001197     0.312576  Biso 1.000000     H
    H   1.0     0.660832     0.893613     0.234626  Biso 1.000000     H
    H   1.0     0.622941     0.913922     0.112925  Biso 1.000000     H
    H   1.0     0.423892     0.094003    -0.000157  Biso 1.000000     H
    H   1.0     0.432333     0.178447     0.289754  Biso 1.000000     H
    H   1.0     0.443470     0.273972     0.375533  Biso 1.000000     H
    H   1.0     0.385024     0.424847     0.219887  Biso 1.000000     H
    H   1.0     0.380238     0.328283     0.132703  Biso 1.000000     H
    H   1.0     0.050829     0.575666     0.403798  Biso 1.000000     H
    H   1.0     0.122283     0.430775     0.562013  Biso 1.000000     H
    H   1.0     0.385564     0.294532     0.471654  Biso 1.000000     H
    H   1.0     0.355193     0.179483     0.530812  Biso 1.000000     H
    H   1.0     0.332092     0.180459     0.657387  Biso 1.000000     H
    H   1.0     0.323717     0.501215     0.812560  Biso 1.000000     H
    H   1.0     0.339461     0.606356     0.734580  Biso 1.000000     H
    H   1.0     0.377271     0.585981     0.612874  Biso 1.000000     H
    H   1.0     0.576126     0.405972     0.499901  Biso 1.000000     H
    H   1.0     0.933335     0.321593     0.289689  Biso 1.000000     H
    H   1.0     0.944781     0.226063     0.375379  Biso 1.000000     H
    H   1.0     0.884899     0.075135     0.219879  Biso 1.000000     H
    H   1.0     0.880018     0.171717     0.132729  Biso 1.000000     H
    H   1.0     0.550270     0.924011     0.403992  Biso 1.000000     H
    H   1.0     0.622778     0.069337     0.561810  Biso 1.000000     H
    H   1.0     0.885883     0.205361     0.470944  Biso 1.000000     H
    H   1.0     0.855201     0.320655     0.529312  Biso 1.000000     H
    H   1.0     0.831972     0.320497     0.655854  Biso 1.000000     H
    H   1.0     0.823586     0.000659     0.813045  Biso 1.000000     H
    H   1.0     0.839261     0.895114     0.735715  Biso 1.000000     H
    H   1.0     0.877333     0.914820     0.613902  Biso 1.000000     H
    H   1.0     0.076679     0.093992     0.499701  Biso 1.000000     H
    H   1.0     0.066861     0.178359     0.789690  Biso 1.000000     H
    H   1.0     0.055436     0.273857     0.875419  Biso 1.000000     H
    H   1.0     0.115010     0.424868     0.719929  Biso 1.000000     H
    H   1.0     0.119906     0.328320     0.632750  Biso 1.000000     H
    H   1.0     0.449771     0.576010     0.904028  Biso 1.000000     H
    H   1.0     0.377135     0.430601     0.061726  Biso 1.000000     H
    H   1.0     0.114161     0.294589     0.971157  Biso 1.000000     H
    H   1.0     0.144832     0.179433     0.029811  Biso 1.000000     H
    H   1.0     0.167982     0.179908     0.156370  Biso 1.000000     H
    H   1.0     0.176368     0.500021     0.312802  Biso 1.000000     H
    H   1.0     0.160790     0.605451     0.235252  Biso 1.000000     H
    H   1.0     0.122864     0.585474     0.113459  Biso 1.000000     H
    H   1.0     0.923396     0.405820    -0.000027  Biso 1.000000     H
    H   1.0     0.066589     0.678389     0.710320  Biso 1.000000     H
    H   1.0     0.055173     0.773922     0.624634  Biso 1.000000     H
    H   1.0     0.115116     0.924837     0.780136  Biso 1.000000     H
    H   1.0     0.119994     0.828250     0.867278  Biso 1.000000     H
    H   1.0     0.449705     0.075975     0.596015  Biso 1.000000     H
    H   1.0     0.377198     0.930650     0.438197  Biso 1.000000     H
    H   1.0     0.114102     0.794618     0.529075  Biso 1.000000     H
    H   1.0     0.144764     0.679315     0.470723  Biso 1.000000     H
    H   1.0     0.167989     0.679454     0.344176  Biso 1.000000     H
    H   1.0     0.176379     0.999259     0.186941  Biso 1.000000     H
    H   1.0     0.160706     0.104824     0.264255  Biso 1.000000     H
    H   1.0     0.122657     0.085137     0.386068  Biso 1.000000     H
    H   1.0     0.923304     0.905979     0.500295  Biso 1.000000     H
    H   1.0     0.933042     0.821642     0.210277  Biso 1.000000     H
    H   1.0     0.944435     0.726142     0.124542  Biso 1.000000     H
    H   1.0     0.885046     0.575124     0.280062  Biso 1.000000     H
    H   1.0     0.880145     0.671675     0.367237  Biso 1.000000     H
    H   1.0     0.550186     0.423940     0.096027  Biso 1.000000     H
    H   1.0     0.622822     0.569353     0.938331  Biso 1.000000     H
    H   1.0     0.886082     0.705326     0.028509  Biso 1.000000     H
    H   1.0     0.855249     0.820295     0.969533  Biso 1.000000     H
    H   1.0     0.831887     0.819370     0.842961  Biso 1.000000     H
    H   1.0     0.823545     0.498784     0.687469  Biso 1.000000     H
    H   1.0     0.839128     0.393608     0.765365  Biso 1.000000     H
    H   1.0     0.877063     0.413990     0.887078  Biso 1.000000     H
    H   1.0     0.076640     0.593997     0.000000  Biso 1.000000     H
    C   1.0     0.405412     0.747809     0.293827  Biso 1.000000     C
    C   1.0     0.423648     0.732636     0.225379  Biso 1.000000     C
    C   1.0     0.428436     0.785951     0.177459  Biso 1.000000     C
    C   1.0     0.412581     0.855231     0.196624  Biso 1.000000     C
    C   1.0     0.396049     0.870659     0.265567  Biso 1.000000     C
    C   1.0     0.393298     0.817448     0.313703  Biso 1.000000     C
    C   1.0     0.394488     0.690367     0.345305  Biso 1.000000     C
    C   1.0     0.409452     0.912272     0.144377  Biso 1.000000     C
    C   1.0     0.201955     0.007229     0.037157  Biso 1.000000     C
    C   1.0     0.097314     0.003672     0.018775  Biso 1.000000     C
    C   1.0     0.028329     0.042703     0.054040  Biso 1.000000     C
    C   1.0     0.067931     0.960931     0.964680  Biso 1.000000     C
    C   1.0     0.375310     0.791186     0.973714  Biso 1.000000     C
    C   1.0     0.358844     0.727987     0.940659  Biso 1.000000     C
    C   1.0     0.345997     0.728383     0.870751  Biso 1.000000     C
    C   1.0     0.349142     0.791839     0.835629  Biso 1.000000     C
    C   1.0     0.334599     0.793725     0.761025  Biso 1.000000     C
    C   1.0     0.337410     0.866036     0.725610  Biso 1.000000     C
    C   1.0     0.346302     0.928677     0.769559  Biso 1.000000     C
    C   1.0     0.338042     0.995596     0.741606  Biso 1.000000     C
    C   1.0     0.347097     0.053226     0.784020  Biso 1.000000     C
    C   1.0     0.367016     0.042129     0.852709  Biso 1.000000     C
    C   1.0     0.363383     0.922221     0.839762  Biso 1.000000     C
    C   1.0     0.365141     0.853379     0.872871  Biso 1.000000     C
    C   1.0     0.594708     0.752130     0.793835  Biso 1.000000     C
    C   1.0     0.576660     0.767349     0.725368  Biso 1.000000     C
    C   1.0     0.571915     0.714058     0.677425  Biso 1.000000     C
    C   1.0     0.587579     0.644760     0.696600  Biso 1.000000     C
    C   1.0     0.603979     0.629291     0.765554  Biso 1.000000     C
    C   1.0     0.606679     0.682478     0.813712  Biso 1.000000     C
    C   1.0     0.605517     0.809548     0.845343  Biso 1.000000     C
    C   1.0     0.590623     0.587721     0.644358  Biso 1.000000     C
    C   1.0     0.798034     0.492777     0.537203  Biso 1.000000     C
    C   1.0     0.902673     0.496336     0.518824  Biso 1.000000     C
    C   1.0     0.971677     0.457313     0.554089  Biso 1.000000     C
    C   1.0     0.932017     0.539024     0.464686  Biso 1.000000     C
    C   1.0     0.624660     0.708868     0.473642  Biso 1.000000     C
    C   1.0     0.641131     0.772056     0.440565  Biso 1.000000     C
    C   1.0     0.653993     0.771638     0.370661  Biso 1.000000     C
    C   1.0     0.650856     0.708171     0.335567  Biso 1.000000     C
    C   1.0     0.665396     0.706259     0.260967  Biso 1.000000     C
    C   1.0     0.662553     0.633941     0.225578  Biso 1.000000     C
    C   1.0     0.653620     0.571313     0.269548  Biso 1.000000     C
    C   1.0     0.661785     0.504379     0.241622  Biso 1.000000     C
    C   1.0     0.652649     0.446781     0.284053  Biso 1.000000     C
    C   1.0     0.632785     0.457910     0.352742  Biso 1.000000     C
    C   1.0     0.636560     0.577796     0.339748  Biso 1.000000     C
    C   1.0     0.634841     0.646644     0.372830  Biso 1.000000     C
    C   1.0     0.594575     0.252172     0.706182  Biso 1.000000     C
    C   1.0     0.576326     0.267345     0.774628  Biso 1.000000     C
    C   1.0     0.571546     0.214031     0.822550  Biso 1.000000     C
    C   1.0     0.587402     0.144751     0.803384  Biso 1.000000     C
    C   1.0     0.603938     0.129323     0.734442  Biso 1.000000     C
    C   1.0     0.606678     0.182533     0.686304  Biso 1.000000     C
    C   1.0     0.605491     0.309613     0.654703  Biso 1.000000     C
    C   1.0     0.590533     0.087710     0.855631  Biso 1.000000     C
    C   1.0     0.798018     0.992744     0.962847  Biso 1.000000     C
    C   1.0     0.902658     0.996297     0.981230  Biso 1.000000     C
    C   1.0     0.971643     0.957264     0.945967  Biso 1.000000     C
    C   1.0     0.932041     0.039038     0.035326  Biso 1.000000     C
    C   1.0     0.624669     0.208795     0.026293  Biso 1.000000     C
    C   1.0     0.641137     0.271994     0.059348  Biso 1.000000     C
    C   1.0     0.653986     0.271597     0.129256  Biso 1.000000     C
    C   1.0     0.650841     0.208141     0.164377  Biso 1.000000     C
    C   1.0     0.665383     0.206255     0.238981  Biso 1.000000     C
    C   1.0     0.662568     0.133944     0.274397  Biso 1.000000     C
    C   1.0     0.653677     0.071303     0.230448  Biso 1.000000     C
    C   1.0     0.661932     0.004384     0.258400  Biso 1.000000     C
    C   1.0     0.652877     0.946754     0.215986  Biso 1.000000     C
    C   1.0     0.632961     0.957851     0.147297  Biso 1.000000     C
    C   1.0     0.636595     0.077760     0.160245  Biso 1.000000     C
    C   1.0     0.634838     0.146601     0.127136  Biso 1.000000     C
    C   1.0     0.405278     0.247841     0.206186  Biso 1.000000     C
    C   1.0     0.423367     0.232625     0.274648  Biso 1.000000     C
    C   1.0     0.428116     0.285918     0.322588  Biso 1.000000     C
    C   1.0     0.412419     0.355214     0.303414  Biso 1.000000     C
    C   1.0     0.395982     0.370680     0.234465  Biso 1.000000     C
    C   1.0     0.393268     0.317490     0.186311  Biso 1.000000     C
    C   1.0     0.394466     0.190425     0.154676  Biso 1.000000     C
    C   1.0     0.409361     0.412255     0.355654  Biso 1.000000     C
    C   1.0     0.201933     0.507201     0.462821  Biso 1.000000     C
    C   1.0     0.097299     0.503653     0.481216  Biso 1.000000     C
    C   1.0     0.028295     0.542677     0.445952  Biso 1.000000     C
    C   1.0     0.067956     0.460967     0.535357  Biso 1.000000     C
    C   1.0     0.375314     0.291114     0.526370  Biso 1.000000     C
    C   1.0     0.358842     0.227926     0.559448  Biso 1.000000     C
    C   1.0     0.345978     0.228346     0.629352  Biso 1.000000     C
    C   1.0     0.349127     0.291813     0.664446  Biso 1.000000     C
    C   1.0     0.334592     0.293727     0.739046  Biso 1.000000     C
    C   1.0     0.337417     0.366047     0.774433  Biso 1.000000     C
    C   1.0     0.346360     0.428673     0.730463  Biso 1.000000     C
    C   1.0     0.338200     0.495608     0.758388  Biso 1.000000     C
    C   1.0     0.347325     0.553205     0.715954  Biso 1.000000     C
    C   1.0     0.367194     0.542074     0.647266  Biso 1.000000     C
    C   1.0     0.363422     0.422189     0.660263  Biso 1.000000     C
    C   1.0     0.365139     0.353340     0.627182  Biso 1.000000     C
    C   1.0     0.905535     0.252196     0.206169  Biso 1.000000     C
    C   1.0     0.924074     0.267408     0.274584  Biso 1.000000     C
    C   1.0     0.928978     0.214097     0.322493  Biso 1.000000     C
    C   1.0     0.912869     0.144779     0.303367  Biso 1.000000     C
    C   1.0     0.896093     0.129318     0.234445  Biso 1.000000     C
    C   1.0     0.893280     0.182521     0.186314  Biso 1.000000     C
    C   1.0     0.894457     0.309588     0.154683  Biso 1.000000     C
    C   1.0     0.909627     0.087724     0.355617  Biso 1.000000     C
    C   1.0     0.701916     0.992624     0.462860  Biso 1.000000     C
    C   1.0     0.597284     0.996229     0.481215  Biso 1.000000     C
    C   1.0     0.527991     0.957138     0.446053  Biso 1.000000     C
    C   1.0     0.568228     0.039095     0.535233  Biso 1.000000     C
    C   1.0     0.875568     0.209106     0.525630  Biso 1.000000     C
    C   1.0     0.858915     0.272438     0.558290  Biso 1.000000     C
    C   1.0     0.846001     0.272454     0.628193  Biso 1.000000     C
    C   1.0     0.849266     0.209248     0.663723  Biso 1.000000     C
    C   1.0     0.834770     0.207797     0.738355  Biso 1.000000     C
    C   1.0     0.837585     0.135694     0.774160  Biso 1.000000     C
    C   1.0     0.846497     0.072797     0.730563  Biso 1.000000     C
    C   1.0     0.838172     0.006006     0.758861  Biso 1.000000     C
    C   1.0     0.847270     0.948163     0.716768  Biso 1.000000     C
    C   1.0     0.867269     0.958910     0.648030  Biso 1.000000     C
    C   1.0     0.863640     0.078884     0.660325  Biso 1.000000     C
    C   1.0     0.865395     0.147532     0.626836  Biso 1.000000     C
    C   1.0     0.094502     0.247806     0.706179  Biso 1.000000     C
    C   1.0     0.076048     0.232555     0.774597  Biso 1.000000     C
    C   1.0     0.071144     0.285847     0.822524  Biso 1.000000     C
    C   1.0     0.087167     0.355176     0.803400  Biso 1.000000     C
    C   1.0     0.103870     0.370674     0.734479  Biso 1.000000     C
    C   1.0     0.106690     0.317492     0.686335  Biso 1.000000     C
    C   1.0     0.105545     0.190457     0.654651  Biso 1.000000     C
    C   1.0     0.090371     0.412233     0.855644  Biso 1.000000     C
    C   1.0     0.298095     0.507356     0.962794  Biso 1.000000     C
    C   1.0     0.402707     0.503744     0.981191  Biso 1.000000     C
    C   1.0     0.472020     0.542861     0.946085  Biso 1.000000     C
    C   1.0     0.431715     0.460858     0.035200  Biso 1.000000     C
    C   1.0     0.124476     0.290975     0.025850  Biso 1.000000     C
    C   1.0     0.141105     0.227724     0.058669  Biso 1.000000     C
    C   1.0     0.153984     0.227882     0.128581  Biso 1.000000     C
    C   1.0     0.150741     0.291178     0.163962  Biso 1.000000     C
    C   1.0     0.165211     0.292836     0.238613  Biso 1.000000     C
    C   1.0     0.162406     0.365061     0.274224  Biso 1.000000     C
    C   1.0     0.153540     0.427784     0.230433  Biso 1.000000     C
    C   1.0     0.161851     0.494618     0.258613  Biso 1.000000     C
    C   1.0     0.152800     0.552363     0.216412  Biso 1.000000     C
    C   1.0     0.132864     0.541456     0.147685  Biso 1.000000     C
    C   1.0     0.136433     0.421528     0.160222  Biso 1.000000     C
    C   1.0     0.134650     0.352796     0.126915  Biso 1.000000     C
    C   1.0     0.094434     0.747776     0.793841  Biso 1.000000     C
    C   1.0     0.075874     0.732572     0.725427  Biso 1.000000     C
    C   1.0     0.070981     0.785885     0.677520  Biso 1.000000     C
    C   1.0     0.087112     0.855201     0.696646  Biso 1.000000     C
    C   1.0     0.103906     0.870656     0.765567  Biso 1.000000     C
    C   1.0     0.106714     0.817449     0.813695  Biso 1.000000     C
    C   1.0     0.105514     0.690381     0.845327  Biso 1.000000     C
    C   1.0     0.090351     0.912258     0.644395  Biso 1.000000     C
    C   1.0     0.298060     0.007361     0.537148  Biso 1.000000     C
    C   1.0     0.402692     0.003757     0.518792  Biso 1.000000     C
    C   1.0     0.471985     0.042849     0.553954  Biso 1.000000     C
    C   1.0     0.431748     0.960892     0.464774  Biso 1.000000     C
    C   1.0     0.124409     0.790866     0.474389  Biso 1.000000     C
    C   1.0     0.141053     0.727529     0.441739  Biso 1.000000     C
    C   1.0     0.153964     0.727498     0.371836  Biso 1.000000     C
    C   1.0     0.150699     0.790697     0.336295  Biso 1.000000     C
    C   1.0     0.165196     0.792133     0.261660  Biso 1.000000     C
    C   1.0     0.162388     0.864230     0.225844  Biso 1.000000     C
    C   1.0     0.153468     0.927134     0.269433  Biso 1.000000     C
    C   1.0     0.161789     0.993921     0.241125  Biso 1.000000     C
    C   1.0     0.152700     0.051775     0.283205  Biso 1.000000     C
    C   1.0     0.132710     0.041040     0.351946  Biso 1.000000     C
    C   1.0     0.136329     0.921064     0.339673  Biso 1.000000     C
    C   1.0     0.134575     0.852421     0.373171  Biso 1.000000     C
    C   1.0     0.905482     0.752191     0.293798  Biso 1.000000     C
    C   1.0     0.923879     0.767444     0.225372  Biso 1.000000     C
    C   1.0     0.928784     0.714151     0.177445  Biso 1.000000     C
    C   1.0     0.912818     0.644818     0.196581  Biso 1.000000     C
    C   1.0     0.896157     0.629320     0.265507  Biso 1.000000     C
    C   1.0     0.893324     0.682504     0.313648  Biso 1.000000     C
    C   1.0     0.894429     0.809535     0.345331  Biso 1.000000     C
    C   1.0     0.909620     0.587751     0.144349  Biso 1.000000     C
    C   1.0     0.701862     0.492588     0.037256  Biso 1.000000     C
    C   1.0     0.597251     0.496205     0.018863  Biso 1.000000     C
    C   1.0     0.527938     0.457088     0.053969  Biso 1.000000     C
    C   1.0     0.568243     0.539092     0.964855  Biso 1.000000     C
    C   1.0     0.875655     0.708762     0.973816  Biso 1.000000     C
    C   1.0     0.858948     0.771910     0.940825  Biso 1.000000     C
    C   1.0     0.845957     0.771518     0.870930  Biso 1.000000     C
    C   1.0     0.849146     0.708105     0.835762  Biso 1.000000     C
    C   1.0     0.834523     0.706218     0.761157  Biso 1.000000     C
    C   1.0     0.837442     0.633947     0.725694  Biso 1.000000     C
    C   1.0     0.846360     0.571312     0.769613  Biso 1.000000     C
    C   1.0     0.838054     0.504379     0.741644  Biso 1.000000     C
    C   1.0     0.847114     0.446766     0.784025  Biso 1.000000     C
    C   1.0     0.867066     0.457896     0.852714  Biso 1.000000     C
    C   1.0     0.863496     0.577785     0.839812  Biso 1.000000     C
    C   1.0     0.865316     0.646608     0.872950  Biso 1.000000     C
    N   1.0     0.378483     0.852457     0.940733  Biso 1.000000     N
    N   1.0     0.375572     0.978373     0.880214  Biso 1.000000     N
    N   1.0     0.621488     0.647585     0.440689  Biso 1.000000     N
    N   1.0     0.624331     0.521664     0.380225  Biso 1.000000     N
    N   1.0     0.621496     0.147524     0.059273  Biso 1.000000     N
    N   1.0     0.624405     0.021608     0.119792  Biso 1.000000     N
    N   1.0     0.378484     0.352398     0.559322  Biso 1.000000     N
    N   1.0     0.375656     0.478320     0.619785  Biso 1.000000     N
    N   1.0     0.878826     0.148058     0.558977  Biso 1.000000     N
    N   1.0     0.875830     0.022536     0.620172  Biso 1.000000     N
    N   1.0     0.121229     0.352097     0.059057  Biso 1.000000     N
    N   1.0     0.124290     0.477791     0.119950  Biso 1.000000     N
    N   1.0     0.121153     0.851909     0.441032  Biso 1.000000     N
    N   1.0     0.124145     0.977420     0.379819  Biso 1.000000     N
    N   1.0     0.878853     0.647532     0.940793  Biso 1.000000     N
    N   1.0     0.875664     0.521651     0.880243  Biso 1.000000     N
    O   1.0     0.395541     0.627625     0.319560  Biso 1.000000     O
    O   1.0     0.383440     0.703613     0.406871  Biso 1.000000     O
    O   1.0     0.429439     0.897532     0.082944  Biso 1.000000     O
    O   1.0     0.386735     0.972545     0.166745  Biso 1.000000     O
    O   1.0     0.257776     0.966616     0.005620  Biso 1.000000     O
    O   1.0     0.226871     0.051743     0.082938  Biso 1.000000     O
    O   1.0     0.321281     0.741119     0.727113  Biso 1.000000     O
    O   1.0     0.333397     0.869575     0.663648  Biso 1.000000     O
    O   1.0     0.557340     0.947276     0.974510  Biso 1.000000     O
    O   1.0     0.604477     0.872304     0.819609  Biso 1.000000     O
    O   1.0     0.616539     0.796281     0.906905  Biso 1.000000     O
    O   1.0     0.570590     0.602467     0.582931  Biso 1.000000     O
    O   1.0     0.613243     0.527432     0.666736  Biso 1.000000     O
    O   1.0     0.742202     0.533365     0.505653  Biso 1.000000     O
    O   1.0     0.773115     0.448243     0.582969  Biso 1.000000     O
    O   1.0     0.678706     0.758852     0.227032  Biso 1.000000     O
    O   1.0     0.666587     0.630385     0.163619  Biso 1.000000     O
    O   1.0     0.442625     0.552699     0.474499  Biso 1.000000     O
    O   1.0     0.604435     0.372355     0.680445  Biso 1.000000     O
    O   1.0     0.616528     0.296364     0.593136  Biso 1.000000     O
    O   1.0     0.570534     0.102450     0.917062  Biso 1.000000     O
    O   1.0     0.613242     0.027435     0.833262  Biso 1.000000     O
    O   1.0     0.742200     0.033364     0.994380  Biso 1.000000     O
    O   1.0     0.773101     0.948227     0.917069  Biso 1.000000     O
    O   1.0     0.678709     0.258860     0.272891  Biso 1.000000     O
    O   1.0     0.666579     0.130407     0.336359  Biso 1.000000     O
    O   1.0     0.442635     0.052708     0.025497  Biso 1.000000     O
    O   1.0     0.395506     0.127668     0.180403  Biso 1.000000     O
    O   1.0     0.383429     0.203698     0.093115  Biso 1.000000     O
    O   1.0     0.429391     0.397514     0.417083  Biso 1.000000     O
    O   1.0     0.386719     0.472541     0.333276  Biso 1.000000     O
    O   1.0     0.257770     0.466614     0.494370  Biso 1.000000     O
    O   1.0     0.226838     0.551707     0.417028  Biso 1.000000     O
    O   1.0     0.321254     0.241136     0.772980  Biso 1.000000     O
    O   1.0     0.333412     0.369601     0.836394  Biso 1.000000     O
    O   1.0     0.557342     0.447287     0.525506  Biso 1.000000     O
    O   1.0     0.895430     0.372345     0.180408  Biso 1.000000     O
    O   1.0     0.883377     0.296256     0.093131  Biso 1.000000     O
    O   1.0     0.929639     0.102504     0.417050  Biso 1.000000     O
    O   1.0     0.886771     0.027396     0.333249  Biso 1.000000     O
    O   1.0     0.757961     0.033269     0.494425  Biso 1.000000     O
    O   1.0     0.726605     0.948079     0.417129  Biso 1.000000     O
    O   1.0     0.821473     0.260534     0.772031  Biso 1.000000     O
    O   1.0     0.833507     0.132553     0.836143  Biso 1.000000     O
    O   1.0     0.057614     0.052687     0.525327  Biso 1.000000     O
    O   1.0     0.104578     0.127671     0.680328  Biso 1.000000     O
    O   1.0     0.116598     0.203848     0.593112  Biso 1.000000     O
    O   1.0     0.070370     0.397456     0.917075  Biso 1.000000     O
    O   1.0     0.113180     0.472567     0.833264  Biso 1.000000     O
    O   1.0     0.242042     0.466726     0.994339  Biso 1.000000     O
    O   1.0     0.273425     0.551906     0.917054  Biso 1.000000     O
    O   1.0     0.178435     0.240161     0.272385  Biso 1.000000     O
    O   1.0     0.166471     0.368564     0.336192  Biso 1.000000     O
    O   1.0     0.942451     0.447204     0.025476  Biso 1.000000     O
    O   1.0     0.104544     0.627622     0.819608  Biso 1.000000     O
    O   1.0     0.116601     0.703713     0.906878  Biso 1.000000     O
    O   1.0     0.070340     0.897479     0.582962  Biso 1.000000     O
    O   1.0     0.113207     0.972588     0.666762  Biso 1.000000     O
    O   1.0     0.242016     0.966717     0.505582  Biso 1.000000     O
    O   1.0     0.273370     0.051905     0.582879  Biso 1.000000     O
    O   1.0     0.178497     0.739389     0.227996  Biso 1.000000     O
    O   1.0     0.166476     0.867359     0.163860  Biso 1.000000     O
    O   1.0     0.942365     0.947288     0.474675  Biso 1.000000     O
    O   1.0     0.895397     0.872324     0.319662  Biso 1.000000     O
    O   1.0     0.883376     0.796138     0.406868  Biso 1.000000     O
    O   1.0     0.929631     0.602505     0.082914  Biso 1.000000     O
    O   1.0     0.886779     0.527427     0.166742  Biso 1.000000     O
    O   1.0     0.757921     0.533221     0.005721  Biso 1.000000     O
    O   1.0     0.726534     0.448026     0.082987  Biso 1.000000     O
    O   1.0     0.821186     0.758800     0.727282  Biso 1.000000     O
    O   1.0     0.833397     0.630425     0.663730  Biso 1.000000     O
    O   1.0     0.057604     0.552660     0.974615  Biso 1.000000     O
   Zn   1.0     0.366384     0.057964     0.111300  Biso 1.000000    Zn
   Zn   1.0     0.404005     0.952330     0.988581  Biso 1.000000    Zn
   Zn   1.0     0.633600     0.442043     0.611311  Biso 1.000000    Zn
   Zn   1.0     0.595965     0.547680     0.488576  Biso 1.000000    Zn
   Zn   1.0     0.633592     0.942014     0.888708  Biso 1.000000    Zn
   Zn   1.0     0.595972     0.047651     0.011427  Biso 1.000000    Zn
   Zn   1.0     0.366366     0.557941     0.388693  Biso 1.000000    Zn
   Zn   1.0     0.404012     0.452306     0.511433  Biso 1.000000    Zn
   Zn   1.0     0.866269     0.941971     0.388762  Biso 1.000000    Zn
   Zn   1.0     0.904143     0.047823     0.511516  Biso 1.000000    Zn
   Zn   1.0     0.133724     0.557988     0.888736  Biso 1.000000    Zn
   Zn   1.0     0.095877     0.452218     0.011479  Biso 1.000000    Zn
   Zn   1.0     0.133706     0.058008     0.611241  Biso 1.000000    Zn
   Zn   1.0     0.095839     0.952151     0.488478  Biso 1.000000    Zn
   Zn   1.0     0.866237     0.441995     0.111307  Biso 1.000000    Zn
   Zn   1.0     0.904132     0.547618     0.988578  Biso 1.000000    Zn
