#======================================================================

# CRYSTAL DATA

#----------------------------------------------------------------------

data_VESTA_phase_1


_pd_phase_name                         MOF
_cell_length_a                         23.74400
_cell_length_b                         15.49600
_cell_length_c                         21.15700
_cell_angle_alpha                      78.04200
_cell_angle_beta                       79.28100
_cell_angle_gamma                      89.82100
_symmetry_space_group_name_H-M         "P 1"
_symmetry_Int_Tables_number            1

loop_
_symmetry_equiv_pos_as_xyz
   "x, y, z"

loop_
   _atom_site_label
   _atom_site_occupancy
   _atom_site_fract_x
   _atom_site_fract_y
   _atom_site_fract_z
   _atom_site_adp_type
   _atom_site_B_iso_or_equiv
   _atom_site_type_symbol
    H   1.0     0.157964     0.353195     0.427597  Biso 1.000000     H
    H   1.0     0.657074     0.353421     0.427135  Biso 1.000000     H
    H   1.0     0.224475     0.228941     0.424130  Biso 1.000000     H
    H   1.0     0.724154     0.229899     0.423101  Biso 1.000000     H
    H   1.0     0.133414     0.094049     0.614233  Biso 1.000000     H
    H   1.0     0.633882     0.093648     0.613194  Biso 1.000000     H
    H   1.0     0.069709     0.222270     0.619048  Biso 1.000000     H
    H   1.0     0.569625     0.221139     0.618591  Biso 1.000000     H
    H   1.0     0.144401     0.988161     0.532404  Biso 1.000000     H
    H   1.0     0.644612     0.988665     0.531062  Biso 1.000000     H
    H   1.0     0.271611     0.181356     0.584805  Biso 1.000000     H
    H   1.0     0.771508     0.182027     0.583418  Biso 1.000000     H
    H   1.0     0.335492     0.308891     0.583946  Biso 1.000000     H
    H   1.0     0.835659     0.309002     0.583036  Biso 1.000000     H
    H   1.0     0.423582     0.297318     0.389897  Biso 1.000000     H
    H   1.0     0.924494     0.297027     0.389360  Biso 1.000000     H
    H   1.0     0.362485     0.165381     0.391817  Biso 1.000000     H
    H   1.0     0.863092     0.165649     0.390812  Biso 1.000000     H
    H   1.0     0.364047     0.460300     0.632196  Biso 1.000000     H
    H   1.0     0.863624     0.459928     0.632376  Biso 1.000000     H
    H   1.0     0.301234     0.468630     0.740226  Biso 1.000000     H
    H   1.0     0.801036     0.468157     0.740564  Biso 1.000000     H
    H   1.0     0.455481     0.501586     0.814554  Biso 1.000000     H
    H   1.0     0.955540     0.500853     0.814480  Biso 1.000000     H
    H   1.0     0.011452     0.493045     0.702844  Biso 1.000000     H
    H   1.0     0.511623     0.493735     0.703068  Biso 1.000000     H
    H   1.0     0.332149     0.316935     0.820350  Biso 1.000000     H
    H   1.0     0.831789     0.316467     0.820243  Biso 1.000000     H
    H   1.0     0.257551     0.205025     0.910708  Biso 1.000000     H
    H   1.0     0.756537     0.205018     0.910129  Biso 1.000000     H
    H   1.0     0.122281     0.221277     0.138648  Biso 1.000000     H
    H   1.0     0.621489     0.221291     0.138108  Biso 1.000000     H
    H   1.0     0.101365     0.344350     0.211764  Biso 1.000000     H
    H   1.0     0.601218     0.343900     0.211692  Biso 1.000000     H
    H   1.0     0.342961     0.646591     0.572891  Biso 1.000000     H
    H   1.0     0.842062     0.646800     0.572411  Biso 1.000000     H
    H   1.0     0.275882     0.770116     0.576924  Biso 1.000000     H
    H   1.0     0.775549     0.771051     0.575881  Biso 1.000000     H
    H   1.0     0.366141     0.906349     0.386819  Biso 1.000000     H
    H   1.0     0.866627     0.905971     0.385795  Biso 1.000000     H
    H   1.0     0.430397     0.778855     0.381423  Biso 1.000000     H
    H   1.0     0.930334     0.777754     0.380977  Biso 1.000000     H
    H   1.0     0.355417     0.011338     0.468955  Biso 1.000000     H
    H   1.0     0.855627     0.011842     0.467615  Biso 1.000000     H
    H   1.0     0.228529     0.817964     0.416604  Biso 1.000000     H
    H   1.0     0.728418     0.818635     0.415220  Biso 1.000000     H
    H   1.0     0.164380     0.690989     0.416985  Biso 1.000000     H
    H   1.0     0.664536     0.691100     0.416083  Biso 1.000000     H
    H   1.0     0.075529     0.702982     0.610651  Biso 1.000000     H
    H   1.0     0.576444     0.702689     0.610128  Biso 1.000000     H
    H   1.0     0.136930     0.834359     0.609201  Biso 1.000000     H
    H   1.0     0.637542     0.834626     0.608204  Biso 1.000000     H
    H   1.0     0.136410     0.540066     0.367619  Biso 1.000000     H
    H   1.0     0.635971     0.539697     0.367826  Biso 1.000000     H
    H   1.0     0.198991     0.531787     0.259438  Biso 1.000000     H
    H   1.0     0.698778     0.531316     0.259802  Biso 1.000000     H
    H   1.0     0.044477     0.499099     0.185538  Biso 1.000000     H
    H   1.0     0.544523     0.498347     0.185492  Biso 1.000000     H
    H   1.0     0.488388     0.506251     0.296971  Biso 1.000000     H
    H   1.0     0.988574     0.506952     0.297167  Biso 1.000000     H
    H   1.0     0.168221     0.683459     0.179773  Biso 1.000000     H
    H   1.0     0.667864     0.683001     0.179680  Biso 1.000000     H
    H   1.0     0.243468     0.794921     0.089894  Biso 1.000000     H
    H   1.0     0.742467     0.794894     0.089308  Biso 1.000000     H
    H   1.0     0.378528     0.778647     0.861903  Biso 1.000000     H
    H   1.0     0.877715     0.778640     0.861387  Biso 1.000000     H
    H   1.0     0.398792     0.656022     0.788334  Biso 1.000000     H
    H   1.0     0.898646     0.655589     0.788257  Biso 1.000000     H
    C   1.0     0.069045     0.369242     0.522529  Biso 1.000000     C
    C   1.0     0.568210     0.368265     0.522576  Biso 1.000000     C
    C   1.0     0.109905     0.295373     0.523521  Biso 1.000000     C
    C   1.0     0.609357     0.294827     0.523075  Biso 1.000000     C
    C   1.0     0.153803     0.296856     0.468813  Biso 1.000000     C
    C   1.0     0.653203     0.296939     0.468213  Biso 1.000000     C
    C   1.0     0.190486     0.227196     0.466851  Biso 1.000000     C
    C   1.0     0.690213     0.227699     0.465941  Biso 1.000000     C
    C   1.0     0.183130     0.152492     0.518650  Biso 1.000000     C
    C   1.0     0.683215     0.152808     0.517566  Biso 1.000000     C
    C   1.0     0.139268     0.151409     0.573495  Biso 1.000000     C
    C   1.0     0.639430     0.151150     0.572584  Biso 1.000000     C
    C   1.0     0.103587     0.222692     0.576440  Biso 1.000000     C
    C   1.0     0.603435     0.221998     0.575847  Biso 1.000000     C
    C   1.0     0.218767     0.075007     0.512309  Biso 1.000000     C
    C   1.0     0.718976     0.075522     0.510961  Biso 1.000000     C
    C   1.0     0.191158     0.992599     0.520468  Biso 1.000000     C
    C   1.0     0.691366     0.993117     0.519090  Biso 1.000000     C
    C   1.0     0.279184     0.082186     0.492527  Biso 1.000000     C
    C   1.0     0.779390     0.082723     0.491165  Biso 1.000000     C
    C   1.0     0.313030     0.163924     0.488633  Biso 1.000000     C
    C   1.0     0.813272     0.164377     0.487423  Biso 1.000000     C
    C   1.0     0.304982     0.206521     0.542030  Biso 1.000000     C
    C   1.0     0.805098     0.206976     0.540826  Biso 1.000000     C
    C   1.0     0.340228     0.278117     0.541510  Biso 1.000000     C
    C   1.0     0.840510     0.278262     0.540576  Biso 1.000000     C
    C   1.0     0.383295     0.311183     0.486769  Biso 1.000000     C
    C   1.0     0.883894     0.311015     0.486099  Biso 1.000000     C
    C   1.0     0.390272     0.270996     0.432437  Biso 1.000000     C
    C   1.0     0.890964     0.270910     0.431717  Biso 1.000000     C
    C   1.0     0.356104     0.197445     0.433793  Biso 1.000000     C
    C   1.0     0.856617     0.197673     0.432810  Biso 1.000000     C
    C   1.0     0.423052     0.385329     0.488308  Biso 1.000000     C
    C   1.0     0.923838     0.384795     0.487874  Biso 1.000000     C
    C   1.0     0.382023     0.469269     0.674288  Biso 1.000000     C
    C   1.0     0.881710     0.468750     0.674431  Biso 1.000000     C
    C   1.0     0.347756     0.473730     0.734239  Biso 1.000000     C
    C   1.0     0.847568     0.473183     0.734448  Biso 1.000000     C
    C   1.0     0.373376     0.485616     0.786598  Biso 1.000000     C
    C   1.0     0.873343     0.484973     0.786717  Biso 1.000000     C
    C   1.0     0.433436     0.492822     0.775402  Biso 1.000000     C
    C   1.0     0.933404     0.492139     0.775389  Biso 1.000000     C
    C   1.0     0.464903     0.487879     0.713921  Biso 1.000000     C
    C   1.0     0.964744     0.487219     0.713845  Biso 1.000000     C
    C   1.0     0.337425     0.489869     0.851498  Biso 1.000000     C
    C   1.0     0.837481     0.489227     0.851650  Biso 1.000000     C
    C   1.0     0.304518     0.413306     0.885872  Biso 1.000000     C
    C   1.0     0.804448     0.412732     0.885944  Biso 1.000000     C
    C   1.0     0.305514     0.330363     0.864499  Biso 1.000000     C
    C   1.0     0.805149     0.329945     0.864372  Biso 1.000000     C
    C   1.0     0.267618     0.273297     0.910565  Biso 1.000000     C
    C   1.0     0.766928     0.273105     0.910197  Biso 1.000000     C
    C   1.0     0.243593     0.320331     0.960918  Biso 1.000000     C
    C   1.0     0.743030     0.320070     0.960632  Biso 1.000000     C
    C   1.0     0.202437     0.284637     0.017109  Biso 1.000000     C
    C   1.0     0.701633     0.284583     0.016642  Biso 1.000000     C
    C   1.0     0.177855     0.194524     0.021016  Biso 1.000000     C
    C   1.0     0.676736     0.194598     0.020689  Biso 1.000000     C
    C   1.0     0.127259     0.186264     0.997425  Biso 1.000000     C
    C   1.0     0.625773     0.186228     0.997765  Biso 1.000000     C
    C   1.0     0.102433     0.104525     0.998494  Biso 1.000000     C
    C   1.0     0.600236     0.104463     0.000000  Biso 1.000000     C
    C   1.0     0.128275     0.027307     0.023956  Biso 1.000000     C
    C   1.0     0.626423     0.027446     0.025364  Biso 1.000000     C
    C   1.0     0.178867     0.033274     0.047781  Biso 1.000000     C
    C   1.0     0.677497     0.033517     0.048186  Biso 1.000000     C
    C   1.0     0.202896     0.116120     0.046094  Biso 1.000000     C
    C   1.0     0.701735     0.116282     0.046039  Biso 1.000000     C
    C   1.0     0.179658     0.328194     0.067670  Biso 1.000000     C
    C   1.0     0.679182     0.328055     0.067364  Biso 1.000000     C
    C   1.0     0.139429     0.288761     0.126594  Biso 1.000000     C
    C   1.0     0.638898     0.288613     0.126247  Biso 1.000000     C
    C   1.0     0.128662     0.351479     0.163670  Biso 1.000000     C
    C   1.0     0.628459     0.351086     0.163561  Biso 1.000000     C
    C   1.0     0.338395     0.570035     0.872782  Biso 1.000000     C
    C   1.0     0.838422     0.569494     0.872810  Biso 1.000000     C
    C   1.0     0.431814     0.631735     0.477443  Biso 1.000000     C
    C   1.0     0.930985     0.630763     0.477483  Biso 1.000000     C
    C   1.0     0.390671     0.705177     0.476945  Biso 1.000000     C
    C   1.0     0.890128     0.704634     0.476494  Biso 1.000000     C
    C   1.0     0.346829     0.703071     0.531811  Biso 1.000000     C
    C   1.0     0.846226     0.703144     0.531199  Biso 1.000000     C
    C   1.0     0.309819     0.772310     0.534081  Biso 1.000000     C
    C   1.0     0.809542     0.772802     0.533163  Biso 1.000000     C
    C   1.0     0.316814     0.847196     0.482452  Biso 1.000000     C
    C   1.0     0.816901     0.847512     0.481369  Biso 1.000000     C
    C   1.0     0.360596     0.848850     0.427432  Biso 1.000000     C
    C   1.0     0.860769     0.848605     0.426528  Biso 1.000000     C
    C   1.0     0.396590     0.778002     0.424170  Biso 1.000000     C
    C   1.0     0.896451     0.777324     0.423581  Biso 1.000000     C
    C   1.0     0.281053     0.924482     0.489056  Biso 1.000000     C
    C   1.0     0.781262     0.924995     0.487711  Biso 1.000000     C
    C   1.0     0.308662     0.006885     0.480928  Biso 1.000000     C
    C   1.0     0.808871     0.007404     0.479550  Biso 1.000000     C
    C   1.0     0.220639     0.917279     0.508853  Biso 1.000000     C
    C   1.0     0.720845     0.917815     0.507493  Biso 1.000000     C
    C   1.0     0.186757     0.835625     0.512594  Biso 1.000000     C
    C   1.0     0.686998     0.836077     0.511389  Biso 1.000000     C
    C   1.0     0.194936     0.793020     0.459194  Biso 1.000000     C
    C   1.0     0.695046     0.793474     0.457995  Biso 1.000000     C
    C   1.0     0.159524     0.721734     0.459443  Biso 1.000000     C
    C   1.0     0.659800     0.721877     0.458517  Biso 1.000000     C
    C   1.0     0.116135     0.688986     0.513915  Biso 1.000000     C
    C   1.0     0.616731     0.688815     0.513258  Biso 1.000000     C
    C   1.0     0.109062     0.729095     0.568296  Biso 1.000000     C
    C   1.0     0.609754     0.729006     0.567588  Biso 1.000000     C
    C   1.0     0.143408     0.802332     0.567204  Biso 1.000000     C
    C   1.0     0.643923     0.802559     0.566229  Biso 1.000000     C
    C   1.0     0.076190     0.615206     0.512139  Biso 1.000000     C
    C   1.0     0.576972     0.614669     0.511719  Biso 1.000000     C
    C   1.0     0.118320     0.531229     0.325570  Biso 1.000000     C
    C   1.0     0.617992     0.530712     0.325739  Biso 1.000000     C
    C   1.0     0.152458     0.526768     0.265557  Biso 1.000000     C
    C   1.0     0.652256     0.526221     0.265793  Biso 1.000000     C
    C   1.0     0.126679     0.514964     0.213292  Biso 1.000000     C
    C   1.0     0.626631     0.514317     0.213442  Biso 1.000000     C
    C   1.0     0.066618     0.507817     0.224624  Biso 1.000000     C
    C   1.0     0.566571     0.507121     0.224639  Biso 1.000000     C
    C   1.0     0.035282     0.512763     0.286165  Biso 1.000000     C
    C   1.0     0.535108     0.512094     0.286116  Biso 1.000000     C
    C   1.0     0.162540     0.510697     0.148359  Biso 1.000000     C
    C   1.0     0.662580     0.510056     0.148545  Biso 1.000000     C
    C   1.0     0.195568     0.587200     0.114066  Biso 1.000000     C
    C   1.0     0.695488     0.586613     0.114170  Biso 1.000000     C
    C   1.0     0.194862     0.669986     0.135643  Biso 1.000000     C
    C   1.0     0.694497     0.669564     0.135533  Biso 1.000000     C
    C   1.0     0.233080     0.726835     0.089822  Biso 1.000000     C
    C   1.0     0.732393     0.726620     0.089461  Biso 1.000000     C
    C   1.0     0.256985     0.679880     0.039382  Biso 1.000000     C
    C   1.0     0.756413     0.679568     0.039118  Biso 1.000000     C
    C   1.0     0.298382     0.715381     0.983374  Biso 1.000000     C
    C   1.0     0.797562     0.715239     0.982922  Biso 1.000000     C
    C   1.0     0.323279     0.805373     0.979325  Biso 1.000000     C
    C   1.0     0.822119     0.805373     0.978935  Biso 1.000000     C
    C   1.0     0.374243     0.813755     0.002248  Biso 1.000000     C
    C   1.0     0.872741     0.813752     0.002457  Biso 1.000000     C
    C   1.0     0.399782     0.895522    -0.000009  Biso 1.000000     C
    C   1.0     0.897687     0.895550     0.001079  Biso 1.000000     C
    C   1.0     0.373597     0.972539     0.974647  Biso 1.000000     C
    C   1.0     0.871983     0.972605     0.975004  Biso 1.000000     C
    C   1.0     0.322524     0.966464     0.951824  Biso 1.000000     C
    C   1.0     0.821146     0.966508     0.951781  Biso 1.000000     C
    C   1.0     0.298284     0.883697     0.953973  Biso 1.000000     C
    C   1.0     0.797024     0.883697     0.953779  Biso 1.000000     C
    C   1.0     0.320832     0.671897     0.932657  Biso 1.000000     C
    C   1.0     0.820347     0.671698     0.932357  Biso 1.000000     C
    C   1.0     0.361116     0.711325     0.873771  Biso 1.000000     C
    C   1.0     0.860572     0.711154     0.873435  Biso 1.000000     C
    C   1.0     0.371552     0.648843     0.836464  Biso 1.000000     C
    C   1.0     0.871348     0.648447     0.836351  Biso 1.000000     C
    C   1.0     0.161597     0.430423     0.127204  Biso 1.000000     C
    C   1.0     0.661613     0.429898     0.127250  Biso 1.000000     C
    N   1.0     0.439738     0.475987     0.664192  Biso 1.000000     N
    N   1.0     0.939427     0.475411     0.664212  Biso 1.000000     N
    N   1.0     0.266927     0.405310     0.945183  Biso 1.000000     N
    N   1.0     0.766781     0.404797     0.945195  Biso 1.000000     N
    N   1.0     0.192714     0.414408     0.069094  Biso 1.000000     N
    N   1.0     0.692642     0.414026     0.069039  Biso 1.000000     N
    N   1.0     0.060602     0.524581     0.335793  Biso 1.000000     N
    N   1.0     0.560278     0.524005     0.335836  Biso 1.000000     N
    N   1.0     0.233237     0.595148     0.054815  Biso 1.000000     N
    N   1.0     0.733078     0.594595     0.054861  Biso 1.000000     N
    N   1.0     0.307368     0.585922     0.930989  Biso 1.000000     N
    N   1.0     0.807303     0.585491     0.930923  Biso 1.000000     N
    O   1.0     0.039419     0.380041     0.576983  Biso 1.000000     O
    O   1.0     0.538573     0.378313     0.577260  Biso 1.000000     O
    O   1.0     0.066731     0.415353     0.465884  Biso 1.000000     O
    O   1.0     0.565652     0.414903     0.466189  Biso 1.000000     O
    O   1.0     0.452451     0.426502     0.433644  Biso 1.000000     O
    O   1.0     0.953421     0.425899     0.433346  Biso 1.000000     O
    O   1.0     0.424946     0.400165     0.544898  Biso 1.000000     O
    O   1.0     0.925682     0.399433     0.544555  Biso 1.000000     O
    O   1.0     0.461450     0.621686     0.422759  Biso 1.000000     O
    O   1.0     0.960614     0.619971     0.423028  Biso 1.000000     O
    O   1.0     0.434370     0.585093     0.533830  Biso 1.000000     O
    O   1.0     0.933294     0.584642     0.534126  Biso 1.000000     O
    O   1.0     0.046606     0.574104     0.566666  Biso 1.000000     O
    O   1.0     0.547571     0.573499     0.566382  Biso 1.000000     O
    O   1.0     0.074348     0.600568     0.455458  Biso 1.000000     O
    O   1.0     0.575077     0.599834     0.455129  Biso 1.000000     O
    F   1.0     0.101209     0.259335     0.972212  Biso 1.000000     F
    F   1.0     0.599943     0.259354     0.972237  Biso 1.000000     F
    F   1.0     0.054007     0.099788     0.974943  Biso 1.000000     F
    F   1.0     0.550956     0.099764     0.977899  Biso 1.000000     F
    F   1.0     0.104176     0.948486     0.025175  Biso 1.000000     F
    F   1.0     0.602530     0.948146     0.027778  Biso 1.000000     F
    F   1.0     0.204760     0.959344     0.072122  Biso 1.000000     F
    F   1.0     0.703494     0.959475     0.072151  Biso 1.000000     F
    F   1.0     0.251884     0.118668     0.069418  Biso 1.000000     F
    F   1.0     0.750715     0.118748     0.069362  Biso 1.000000     F
    F   1.0     0.400078     0.740635     0.027777  Biso 1.000000     F
    F   1.0     0.898786     0.740721     0.027802  Biso 1.000000     F
    F   1.0     0.449061     0.900226     0.022113  Biso 1.000000     F
    F   1.0     0.945961     0.900252     0.024957  Biso 1.000000     F
    F   1.0     0.397489     0.051840     0.972234  Biso 1.000000     F
    F   1.0     0.896174     0.051811     0.972303  Biso 1.000000     F
    F   1.0     0.296528     0.040509     0.927861  Biso 1.000000     F
    F   1.0     0.795223     0.040571     0.927786  Biso 1.000000     F
    F   1.0     0.249303     0.881242     0.930650  Biso 1.000000     F
    F   1.0     0.748005     0.881218     0.930572  Biso 1.000000     F
   Zn   1.0     0.483998     0.481245     0.569213  Biso 1.000000    Zn
   Zn   1.0     0.983416     0.481341     0.569176  Biso 1.000000    Zn
   Zn   1.0     0.016615     0.518659     0.430834  Biso 1.000000    Zn
   Zn   1.0     0.516024     0.518754     0.430809  Biso 1.000000    Zn
   Zn   1.0     0.249733     0.500183     0.999994  Biso 1.000000    Zn
   Zn   1.0     0.750285     0.499772     0.000000  Biso 1.000000    Zn
