#======================================================================

# CRYSTAL DATA

#----------------------------------------------------------------------

data_VESTA_phase_1


_pd_phase_name                         MOF
_cell_length_a                         10.91100
_cell_length_b                         23.31000
_cell_length_c                         13.33000
_cell_angle_alpha                      90.25100
_cell_angle_beta                       95.52000
_cell_angle_gamma                      90.98800
_symmetry_space_group_name_H-M         "P 1"
_symmetry_Int_Tables_number            1

loop_
_symmetry_equiv_pos_as_xyz
   "x, y, z"

loop_
   _atom_site_label
   _atom_site_occupancy
   _atom_site_fract_x
   _atom_site_fract_y
   _atom_site_fract_z
   _atom_site_adp_type
   _atom_site_B_iso_or_equiv
   _atom_site_type_symbol
    H   1.0     0.045657     0.089089     0.643767  Biso 1.000000     H
    H   1.0     0.045658     0.589096     0.643767  Biso 1.000000     H
    H   1.0     0.545642     0.089089     0.643767  Biso 1.000000     H
    H   1.0     0.545643     0.589096     0.643767  Biso 1.000000     H
    H   1.0     0.504699     0.012658     0.768756  Biso 1.000000     H
    H   1.0     0.504700     0.512665     0.768757  Biso 1.000000     H
    H   1.0     0.000000     0.012657     0.768756  Biso 1.000000     H
    H   1.0     0.000000     0.512665     0.768757  Biso 1.000000     H
    H   1.0     0.202996     0.098483     0.855878  Biso 1.000000     H
    H   1.0     0.202996     0.598490     0.855878  Biso 1.000000     H
    H   1.0     0.702981     0.098481     0.855876  Biso 1.000000     H
    H   1.0     0.702981     0.598489     0.855877  Biso 1.000000     H
    H   1.0     0.225659     0.175736     0.728945  Biso 1.000000     H
    H   1.0     0.225658     0.675742     0.728943  Biso 1.000000     H
    H   1.0     0.725642     0.175733     0.728943  Biso 1.000000     H
    H   1.0     0.725643     0.675741     0.728943  Biso 1.000000     H
    H   1.0     0.290636     0.365920     0.884647  Biso 1.000000     H
    H   1.0     0.290640     0.865926     0.884650  Biso 1.000000     H
    H   1.0     0.790621     0.365918     0.884649  Biso 1.000000     H
    H   1.0     0.790625     0.865925     0.884651  Biso 1.000000     H
    H   1.0     0.311740     0.289783     0.754408  Biso 1.000000     H
    H   1.0     0.311744     0.789790     0.754409  Biso 1.000000     H
    H   1.0     0.811726     0.289781     0.754410  Biso 1.000000     H
    H   1.0     0.811730     0.789790     0.754410  Biso 1.000000     H
    H   1.0     0.472413     0.326556     0.604889  Biso 1.000000     H
    H   1.0     0.472417     0.826564     0.604890  Biso 1.000000     H
    H   1.0     0.972396     0.326556     0.604890  Biso 1.000000     H
    H   1.0     0.972400     0.826564     0.604890  Biso 1.000000     H
    H   1.0     0.431979     0.400364     0.734807  Biso 1.000000     H
    H   1.0     0.431983     0.900371     0.734810  Biso 1.000000     H
    H   1.0     0.931964     0.400365     0.734809  Biso 1.000000     H
    H   1.0     0.931968     0.900372     0.734811  Biso 1.000000     H
    H   1.0     0.454261     0.410921     0.356286  Biso 1.000000     H
    H   1.0     0.454262     0.910928     0.356286  Biso 1.000000     H
    H   1.0     0.954245     0.410920     0.356286  Biso 1.000000     H
    H   1.0     0.954247     0.910927     0.356286  Biso 1.000000     H
    H   1.0    -0.004848     0.487352     0.231281  Biso 1.000000     H
    H   1.0    -0.004843     0.987360     0.231283  Biso 1.000000     H
    H   1.0     0.495139     0.487353     0.231281  Biso 1.000000     H
    H   1.0     0.495143     0.987360     0.231282  Biso 1.000000     H
    H   1.0     0.296890     0.401561     0.144140  Biso 1.000000     H
    H   1.0     0.296893     0.901568     0.144140  Biso 1.000000     H
    H   1.0     0.796874     0.401561     0.144138  Biso 1.000000     H
    H   1.0     0.796878     0.901567     0.144138  Biso 1.000000     H
    H   1.0     0.274290     0.324310     0.271087  Biso 1.000000     H
    H   1.0     0.274291     0.824316     0.271086  Biso 1.000000     H
    H   1.0     0.774276     0.324310     0.271085  Biso 1.000000     H
    H   1.0     0.774276     0.824315     0.271085  Biso 1.000000     H
    H   1.0     0.209198     0.134083     0.115379  Biso 1.000000     H
    H   1.0     0.209199     0.634091     0.115379  Biso 1.000000     H
    H   1.0     0.709184     0.134084     0.115379  Biso 1.000000     H
    H   1.0     0.709184     0.634092     0.115377  Biso 1.000000     H
    H   1.0     0.188130     0.210212     0.245636  Biso 1.000000     H
    H   1.0     0.188130     0.710219     0.245637  Biso 1.000000     H
    H   1.0     0.688116     0.210212     0.245637  Biso 1.000000     H
    H   1.0     0.688116     0.710220     0.245637  Biso 1.000000     H
    H   1.0     0.027480     0.173427     0.395105  Biso 1.000000     H
    H   1.0     0.027480     0.673433     0.395105  Biso 1.000000     H
    H   1.0     0.527465     0.173427     0.395106  Biso 1.000000     H
    H   1.0     0.527466     0.673434     0.395105  Biso 1.000000     H
    H   1.0     0.067881     0.099627     0.265162  Biso 1.000000     H
    H   1.0     0.067881     0.599635     0.265161  Biso 1.000000     H
    H   1.0     0.567866     0.099627     0.265162  Biso 1.000000     H
    H   1.0     0.567867     0.599635     0.265162  Biso 1.000000     H
   Li   1.0     0.344187     0.491497     0.935309  Biso 1.000000    Li
   Li   1.0     0.344191     0.991505     0.935310  Biso 1.000000    Li
   Li   1.0     0.844172     0.491497     0.935308  Biso 1.000000    Li
   Li   1.0     0.844176     0.991504     0.935309  Biso 1.000000    Li
   Li   1.0     0.155207     0.241717     0.561743  Biso 1.000000    Li
   Li   1.0     0.155210     0.741725     0.561744  Biso 1.000000    Li
   Li   1.0     0.655193     0.241716     0.561743  Biso 1.000000    Li
   Li   1.0     0.655196     0.741724     0.561744  Biso 1.000000    Li
   Li   1.0     0.155667     0.008510     0.064673  Biso 1.000000    Li
   Li   1.0     0.155666     0.508517     0.064672  Biso 1.000000    Li
   Li   1.0     0.655652     0.008510     0.064673  Biso 1.000000    Li
   Li   1.0     0.655652     0.508517     0.064671  Biso 1.000000    Li
   Li   1.0     0.344730     0.258285     0.438267  Biso 1.000000    Li
   Li   1.0     0.344733     0.758293     0.438268  Biso 1.000000    Li
   Li   1.0     0.844716     0.258286     0.438267  Biso 1.000000    Li
   Li   1.0     0.844718     0.758293     0.438267  Biso 1.000000    Li
    C   1.0     0.415486     0.185087     0.602345  Biso 1.000000     C
    C   1.0     0.415485     0.685091     0.602342  Biso 1.000000     C
    C   1.0     0.915469     0.185084     0.602341  Biso 1.000000     C
    C   1.0     0.915469     0.685090     0.602340  Biso 1.000000     C
    C   1.0     0.389268     0.138633     0.676768  Biso 1.000000     C
    C   1.0     0.389268     0.638639     0.676767  Biso 1.000000     C
    C   1.0     0.889253     0.138631     0.676766  Biso 1.000000     C
    C   1.0     0.889254     0.638638     0.676766  Biso 1.000000     C
    C   1.0     0.467639     0.091750     0.688614  Biso 1.000000     C
    C   1.0     0.467641     0.591757     0.688616  Biso 1.000000     C
    C   1.0     0.967626     0.091749     0.688615  Biso 1.000000     C
    C   1.0     0.967627     0.591757     0.688616  Biso 1.000000     C
    C   1.0     0.445234     0.049686     0.758415  Biso 1.000000     C
    C   1.0     0.445234     0.549693     0.758416  Biso 1.000000     C
    C   1.0     0.945220     0.049685     0.758415  Biso 1.000000     C
    C   1.0     0.945220     0.549692     0.758416  Biso 1.000000     C
    C   1.0     0.277216     0.097366     0.806555  Biso 1.000000     C
    C   1.0     0.277216     0.597373     0.806554  Biso 1.000000     C
    C   1.0     0.777201     0.097364     0.806553  Biso 1.000000     C
    C   1.0     0.777201     0.597372     0.806553  Biso 1.000000     C
    C   1.0     0.290858     0.140796     0.736629  Biso 1.000000     C
    C   1.0     0.290859     0.640803     0.736628  Biso 1.000000     C
    C   1.0     0.790843     0.140795     0.736627  Biso 1.000000     C
    C   1.0     0.790845     0.640802     0.736628  Biso 1.000000     C
    C   1.0     0.083909     0.432650     0.899955  Biso 1.000000     C
    C   1.0     0.083913     0.932656     0.899958  Biso 1.000000     C
    C   1.0     0.583894     0.432648     0.899957  Biso 1.000000     C
    C   1.0     0.583898     0.932655     0.899960  Biso 1.000000     C
    C   1.0     0.107644     0.388470     0.820858  Biso 1.000000     C
    C   1.0     0.107648     0.888477     0.820860  Biso 1.000000     C
    C   1.0     0.607630     0.388469     0.820858  Biso 1.000000     C
    C   1.0     0.607634     0.888477     0.820861  Biso 1.000000     C
    C   1.0     0.216510     0.357315     0.825418  Biso 1.000000     C
    C   1.0     0.216514     0.857322     0.825420  Biso 1.000000     C
    C   1.0     0.716496     0.357313     0.825419  Biso 1.000000     C
    C   1.0     0.716500     0.857321     0.825420  Biso 1.000000     C
    C   1.0     0.228880     0.315491     0.752153  Biso 1.000000     C
    C   1.0     0.228884     0.815498     0.752154  Biso 1.000000     C
    C   1.0     0.728866     0.315489     0.752154  Biso 1.000000     C
    C   1.0     0.728871     0.815497     0.752155  Biso 1.000000     C
    C   1.0     0.039531     0.335714     0.669221  Biso 1.000000     C
    C   1.0     0.039536     0.835722     0.669222  Biso 1.000000     C
    C   1.0     0.539519     0.335713     0.669221  Biso 1.000000     C
    C   1.0     0.539523     0.835721     0.669223  Biso 1.000000     C
    C   1.0     0.018049     0.377118     0.740560  Biso 1.000000     C
    C   1.0     0.018053     0.877125     0.740562  Biso 1.000000     C
    C   1.0     0.518036     0.377118     0.740560  Biso 1.000000     C
    C   1.0     0.518040     0.877125     0.740562  Biso 1.000000     C
    C   1.0     0.084461     0.314931     0.397682  Biso 1.000000     C
    C   1.0     0.084461     0.814936     0.397680  Biso 1.000000     C
    C   1.0     0.584447     0.314931     0.397683  Biso 1.000000     C
    C   1.0     0.584448     0.814937     0.397681  Biso 1.000000     C
    C   1.0     0.110664     0.361393     0.323271  Biso 1.000000     C
    C   1.0     0.110665     0.861399     0.323270  Biso 1.000000     C
    C   1.0     0.610650     0.361393     0.323271  Biso 1.000000     C
    C   1.0     0.610652     0.861399     0.323270  Biso 1.000000     C
    C   1.0     0.032269     0.408267     0.311428  Biso 1.000000     C
    C   1.0     0.032272     0.908274     0.311429  Biso 1.000000     C
    C   1.0     0.532255     0.408267     0.311427  Biso 1.000000     C
    C   1.0     0.532258     0.908274     0.311428  Biso 1.000000     C
    C   1.0     0.054641     0.450332     0.241620  Biso 1.000000     C
    C   1.0     0.054645     0.950339     0.241621  Biso 1.000000     C
    C   1.0     0.554628     0.450332     0.241619  Biso 1.000000     C
    C   1.0     0.554631     0.950339     0.241620  Biso 1.000000     C
    C   1.0     0.222677     0.402670     0.193471  Biso 1.000000     C
    C   1.0     0.222680     0.902677     0.193471  Biso 1.000000     C
    C   1.0     0.722663     0.402670     0.193470  Biso 1.000000     C
    C   1.0     0.722665     0.902677     0.193470  Biso 1.000000     C
    C   1.0     0.209068     0.359240     0.263403  Biso 1.000000     C
    C   1.0     0.209071     0.859247     0.263403  Biso 1.000000     C
    C   1.0     0.709054     0.359240     0.263402  Biso 1.000000     C
    C   1.0     0.709056     0.859247     0.263402  Biso 1.000000     C
    C   1.0     0.415952     0.067354     0.100028  Biso 1.000000     C
    C   1.0     0.415952     0.567362     0.100025  Biso 1.000000     C
    C   1.0     0.915937     0.067355     0.100026  Biso 1.000000     C
    C   1.0     0.915937     0.567364     0.100022  Biso 1.000000     C
    C   1.0     0.392208     0.111528     0.179135  Biso 1.000000     C
    C   1.0     0.392208     0.611536     0.179134  Biso 1.000000     C
    C   1.0     0.892194     0.111528     0.179135  Biso 1.000000     C
    C   1.0     0.892193     0.611536     0.179133  Biso 1.000000     C
    C   1.0     0.283341     0.142683     0.174597  Biso 1.000000     C
    C   1.0     0.283340     0.642690     0.174598  Biso 1.000000     C
    C   1.0     0.783326     0.142683     0.174597  Biso 1.000000     C
    C   1.0     0.783325     0.642691     0.174597  Biso 1.000000     C
    C   1.0     0.270987     0.184504     0.247874  Biso 1.000000     C
    C   1.0     0.270988     0.684511     0.247875  Biso 1.000000     C
    C   1.0     0.770973     0.184504     0.247875  Biso 1.000000     C
    C   1.0     0.770973     0.684511     0.247874  Biso 1.000000     C
    C   1.0     0.460347     0.164275     0.330779  Biso 1.000000     C
    C   1.0     0.460347     0.664282     0.330779  Biso 1.000000     C
    C   1.0     0.960332     0.164275     0.330779  Biso 1.000000     C
    C   1.0     0.960332     0.664281     0.330778  Biso 1.000000     C
    C   1.0     0.481813     0.122875     0.259427  Biso 1.000000     C
    C   1.0     0.481813     0.622882     0.259427  Biso 1.000000     C
    C   1.0     0.981798     0.122875     0.259427  Biso 1.000000     C
    C   1.0     0.981797     0.622882     0.259426  Biso 1.000000     C
    N   1.0     0.352278     0.051994     0.818055  Biso 1.000000     N
    N   1.0     0.352274     0.552000     0.818051  Biso 1.000000     N
    N   1.0     0.852260     0.051992     0.818050  Biso 1.000000     N
    N   1.0     0.852259     0.551998     0.818049  Biso 1.000000     N
    N   1.0     0.142881     0.304314     0.674575  Biso 1.000000     N
    N   1.0     0.142885     0.804321     0.674577  Biso 1.000000     N
    N   1.0     0.642867     0.304312     0.674577  Biso 1.000000     N
    N   1.0     0.642870     0.804320     0.674578  Biso 1.000000     N
    N   1.0     0.147591     0.448034     0.181972  Biso 1.000000     N
    N   1.0     0.147593     0.948040     0.181972  Biso 1.000000     N
    N   1.0     0.647578     0.448034     0.181972  Biso 1.000000     N
    N   1.0     0.647580     0.948040     0.181972  Biso 1.000000     N
    N   1.0     0.357001     0.195677     0.325443  Biso 1.000000     N
    N   1.0     0.357003     0.695684     0.325442  Biso 1.000000     N
    N   1.0     0.856987     0.195677     0.325443  Biso 1.000000     N
    N   1.0     0.856989     0.695685     0.325441  Biso 1.000000     N
    O   1.0     0.023806     0.187955     0.576656  Biso 1.000000     O
    O   1.0     0.023809     0.687963     0.576661  Biso 1.000000     O
    O   1.0     0.523789     0.187953     0.576648  Biso 1.000000     O
    O   1.0     0.523794     0.687962     0.576658  Biso 1.000000     O
    O   1.0     0.327622     0.217818     0.570283  Biso 1.000000     O
    O   1.0     0.327626     0.717827     0.570285  Biso 1.000000     O
    O   1.0     0.827609     0.217820     0.570285  Biso 1.000000     O
    O   1.0     0.827612     0.717828     0.570286  Biso 1.000000     O
    O   1.0     0.473059     0.439800     0.915840  Biso 1.000000     O
    O   1.0     0.473062     0.939807     0.915841  Biso 1.000000     O
    O   1.0     0.973045     0.439799     0.915842  Biso 1.000000     O
    O   1.0     0.973049     0.939806     0.915844  Biso 1.000000     O
    O   1.0     0.176673     0.459611     0.944447  Biso 1.000000     O
    O   1.0     0.176677     0.959619     0.944448  Biso 1.000000     O
    O   1.0     0.676658     0.459611     0.944445  Biso 1.000000     O
    O   1.0     0.676662     0.959619     0.944446  Biso 1.000000     O
    O   1.0     0.476127     0.312045     0.423341  Biso 1.000000     O
    O   1.0     0.476131     0.812053     0.423345  Biso 1.000000     O
    O   1.0     0.976114     0.312045     0.423344  Biso 1.000000     O
    O   1.0     0.976117     0.812053     0.423347  Biso 1.000000     O
    O   1.0     0.172326     0.282198     0.429736  Biso 1.000000     O
    O   1.0     0.172329     0.782205     0.429738  Biso 1.000000     O
    O   1.0     0.672312     0.282197     0.429735  Biso 1.000000     O
    O   1.0     0.672315     0.782205     0.429737  Biso 1.000000     O
    O   1.0     0.026803     0.060211     0.084139  Biso 1.000000     O
    O   1.0     0.026804     0.560217     0.084139  Biso 1.000000     O
    O   1.0     0.526789     0.060212     0.084138  Biso 1.000000     O
    O   1.0     0.526789     0.560218     0.084139  Biso 1.000000     O
    O   1.0     0.323196     0.040391     0.055528  Biso 1.000000     O
    O   1.0     0.323196     0.540398     0.055529  Biso 1.000000     O
    O   1.0     0.823182     0.040391     0.055528  Biso 1.000000     O
    O   1.0     0.823182     0.540398     0.055529  Biso 1.000000     O
