#======================================================================

# CRYSTAL DATA

#----------------------------------------------------------------------

data_VESTA_phase_1


_pd_phase_name                         MOF
_cell_length_a                         10.88800
_cell_length_b                         22.55300
_cell_length_c                         14.27200
_cell_angle_alpha                      89.88400
_cell_angle_beta                       90.01100
_cell_angle_gamma                      105.17800
_symmetry_space_group_name_H-M         "P 1"
_symmetry_Int_Tables_number            1

loop_
_symmetry_equiv_pos_as_xyz
   "x, y, z"

loop_
   _atom_site_label
   _atom_site_occupancy
   _atom_site_fract_x
   _atom_site_fract_y
   _atom_site_fract_z
   _atom_site_adp_type
   _atom_site_B_iso_or_equiv
   _atom_site_type_symbol
    H   1.0     0.485273     0.365349     0.380079  Biso 1.000000     H
    H   1.0     0.485284     0.865352     0.380078  Biso 1.000000     H
    H   1.0     0.985265     0.365348     0.380081  Biso 1.000000     H
    H   1.0     0.985275     0.865351     0.380081  Biso 1.000000     H
    H   1.0     0.202754     0.338681     0.105996  Biso 1.000000     H
    H   1.0     0.202768     0.838687     0.105993  Biso 1.000000     H
    H   1.0     0.702750     0.338683     0.105995  Biso 1.000000     H
    H   1.0     0.702764     0.838688     0.105992  Biso 1.000000     H
    H   1.0     0.177532     0.411589     0.232993  Biso 1.000000     H
    H   1.0     0.177544     0.911593     0.232992  Biso 1.000000     H
    H   1.0     0.677528     0.411590     0.232992  Biso 1.000000     H
    H   1.0     0.677540     0.911594     0.232990  Biso 1.000000     H
    H   1.0     0.491111     0.290462     0.251436  Biso 1.000000     H
    H   1.0     0.491125     0.790467     0.251433  Biso 1.000000     H
    H   1.0     0.991104     0.290461     0.251437  Biso 1.000000     H
    H   1.0     0.991116     0.790465     0.251436  Biso 1.000000     H
    H   1.0     0.264430     0.383710     0.879488  Biso 1.000000     H
    H   1.0     0.264443     0.883714     0.879489  Biso 1.000000     H
    H   1.0     0.764426     0.383712     0.879490  Biso 1.000000     H
    H   1.0     0.764435     0.883713     0.879488  Biso 1.000000     H
    H   1.0     0.046170     0.412973     0.604689  Biso 1.000000     H
    H   1.0     0.046186     0.912978     0.604691  Biso 1.000000     H
    H   1.0     0.546168     0.412975     0.604691  Biso 1.000000     H
    H   1.0     0.546178     0.912977     0.604690  Biso 1.000000     H
    H   1.0     0.071198     0.338598     0.730011  Biso 1.000000     H
    H   1.0     0.071212     0.838602     0.730012  Biso 1.000000     H
    H   1.0     0.571195     0.338600     0.730013  Biso 1.000000     H
    H   1.0     0.571204     0.838601     0.730011  Biso 1.000000     H
    H   1.0     0.258315     0.459879     0.752400  Biso 1.000000     H
    H   1.0     0.258329     0.959883     0.752402  Biso 1.000000     H
    H   1.0     0.758312     0.459881     0.752402  Biso 1.000000     H
    H   1.0     0.758321     0.959883     0.752401  Biso 1.000000     H
    H   1.0     0.014743     0.134650     0.619954  Biso 1.000000     H
    H   1.0     0.014751     0.634652     0.619955  Biso 1.000000     H
    H   1.0     0.514732     0.134648     0.619957  Biso 1.000000     H
    H   1.0     0.514739     0.634650     0.619959  Biso 1.000000     H
    H   1.0     0.297241     0.161311     0.894050  Biso 1.000000     H
    H   1.0     0.297249     0.661313     0.894051  Biso 1.000000     H
    H   1.0     0.797239     0.161313     0.894049  Biso 1.000000     H
    H   1.0     0.797249     0.661314     0.894049  Biso 1.000000     H
    H   1.0     0.322473     0.088407     0.767051  Biso 1.000000     H
    H   1.0     0.322480     0.588408     0.767052  Biso 1.000000     H
    H   1.0     0.822470     0.088409     0.767049  Biso 1.000000     H
    H   1.0     0.822479     0.588411     0.767048  Biso 1.000000     H
    H   1.0     0.008893     0.209533     0.748600  Biso 1.000000     H
    H   1.0     0.008903     0.709535     0.748602  Biso 1.000000     H
    H   1.0     0.508883     0.209531     0.748604  Biso 1.000000     H
    H   1.0     0.508891     0.709532     0.748606  Biso 1.000000     H
    H   1.0     0.235577     0.116288     0.120545  Biso 1.000000     H
    H   1.0     0.235588     0.616290     0.120545  Biso 1.000000     H
    H   1.0     0.735578     0.116291     0.120549  Biso 1.000000     H
    H   1.0     0.735586     0.616292     0.120547  Biso 1.000000     H
    H   1.0     0.453841     0.087028     0.395347  Biso 1.000000     H
    H   1.0     0.453854     0.587031     0.395348  Biso 1.000000     H
    H   1.0     0.953844     0.087033     0.395352  Biso 1.000000     H
    H   1.0     0.953853     0.587034     0.395351  Biso 1.000000     H
    H   1.0     0.428809     0.161400     0.270022  Biso 1.000000     H
    H   1.0     0.428821     0.661403     0.270022  Biso 1.000000     H
    H   1.0     0.928812     0.161405     0.270028  Biso 1.000000     H
    H   1.0     0.928819     0.661406     0.270025  Biso 1.000000     H
    H   1.0     0.241695     0.040121     0.247635  Biso 1.000000     H
    H   1.0     0.241708     0.540124     0.247636  Biso 1.000000     H
    H   1.0     0.741696     0.040125     0.247639  Biso 1.000000     H
    H   1.0     0.741705     0.540126     0.247638  Biso 1.000000     H
   Li   1.0     0.403751     0.003462     0.565738  Biso 1.000000    Li
   Li   1.0     0.403759     0.503463     0.565738  Biso 1.000000    Li
   Li   1.0     0.903745     0.003462     0.565738  Biso 1.000000    Li
   Li   1.0     0.903752     0.503464     0.565738  Biso 1.000000    Li
   Li   1.0     0.346394     0.247590     0.066301  Biso 1.000000    Li
   Li   1.0     0.346406     0.747594     0.066301  Biso 1.000000    Li
   Li   1.0     0.846388     0.247591     0.066301  Biso 1.000000    Li
   Li   1.0     0.846399     0.747594     0.066301  Biso 1.000000    Li
   Li   1.0     0.096272     0.496541     0.434297  Biso 1.000000    Li
   Li   1.0     0.096281     0.996543     0.434296  Biso 1.000000    Li
   Li   1.0     0.596265     0.496541     0.434297  Biso 1.000000    Li
   Li   1.0     0.596274     0.996543     0.434296  Biso 1.000000    Li
   Li   1.0     0.153614     0.252408     0.933733  Biso 1.000000    Li
   Li   1.0     0.153624     0.752410     0.933733  Biso 1.000000    Li
   Li   1.0     0.653607     0.252408     0.933733  Biso 1.000000    Li
   Li   1.0     0.653618     0.752410     0.933733  Biso 1.000000    Li
    C   1.0     0.313932     0.436614     0.395192  Biso 1.000000     C
    C   1.0     0.313943     0.936617     0.395192  Biso 1.000000     C
    C   1.0     0.813926     0.436615     0.395192  Biso 1.000000     C
    C   1.0     0.813936     0.936617     0.395192  Biso 1.000000     C
    C   1.0     0.329016     0.393796     0.316919  Biso 1.000000     C
    C   1.0     0.329027     0.893800     0.316918  Biso 1.000000     C
    C   1.0     0.829010     0.393796     0.316919  Biso 1.000000     C
    C   1.0     0.829021     0.893800     0.316919  Biso 1.000000     C
    C   1.0     0.419255     0.359677     0.321417  Biso 1.000000     C
    C   1.0     0.419267     0.859681     0.321416  Biso 1.000000     C
    C   1.0     0.919247     0.359676     0.321418  Biso 1.000000     C
    C   1.0     0.919259     0.859680     0.321417  Biso 1.000000     C
    C   1.0     0.262909     0.345415     0.168362  Biso 1.000000     C
    C   1.0     0.262922     0.845420     0.168360  Biso 1.000000     C
    C   1.0     0.762904     0.345415     0.168362  Biso 1.000000     C
    C   1.0     0.762918     0.845420     0.168360  Biso 1.000000     C
    C   1.0     0.249647     0.386194     0.238235  Biso 1.000000     C
    C   1.0     0.249659     0.886198     0.238234  Biso 1.000000     C
    C   1.0     0.749641     0.386194     0.238235  Biso 1.000000     C
    C   1.0     0.749654     0.886199     0.238233  Biso 1.000000     C
    C   1.0     0.423603     0.318677     0.249333  Biso 1.000000     C
    C   1.0     0.423616     0.818681     0.249331  Biso 1.000000     C
    C   1.0     0.923596     0.318676     0.249334  Biso 1.000000     C
    C   1.0     0.923608     0.818681     0.249332  Biso 1.000000     C
    C   1.0     0.435463     0.312065     0.892266  Biso 1.000000     C
    C   1.0     0.435475     0.812068     0.892267  Biso 1.000000     C
    C   1.0     0.935456     0.312065     0.892266  Biso 1.000000     C
    C   1.0     0.935468     0.812068     0.892267  Biso 1.000000     C
    C   1.0     0.420180     0.355714     0.814957  Biso 1.000000     C
    C   1.0     0.420194     0.855718     0.814958  Biso 1.000000     C
    C   1.0     0.920174     0.355714     0.814957  Biso 1.000000     C
    C   1.0     0.920187     0.855718     0.814958  Biso 1.000000     C
    C   1.0     0.330208     0.389918     0.820615  Biso 1.000000     C
    C   1.0     0.330219     0.889921     0.820614  Biso 1.000000     C
    C   1.0     0.830203     0.389919     0.820616  Biso 1.000000     C
    C   1.0     0.830211     0.889921     0.820614  Biso 1.000000     C
    C   1.0     0.486205     0.405677     0.667194  Biso 1.000000     C
    C   1.0     0.486215     0.905679     0.667193  Biso 1.000000     C
    C   1.0     0.986196     0.405676     0.667192  Biso 1.000000     C
    C   1.0     0.986209     0.905680     0.667193  Biso 1.000000     C
    C   1.0    -0.000637     0.364086     0.736099  Biso 1.000000     C
    C   1.0    -0.000625     0.864089     0.736100  Biso 1.000000     C
    C   1.0     0.499360     0.364087     0.736101  Biso 1.000000     C
    C   1.0     0.499367     0.864088     0.736099  Biso 1.000000     C
    C   1.0     0.325834     0.431693     0.749401  Biso 1.000000     C
    C   1.0     0.325846     0.931697     0.749401  Biso 1.000000     C
    C   1.0     0.825829     0.431695     0.749402  Biso 1.000000     C
    C   1.0     0.825839     0.931697     0.749401  Biso 1.000000     C
    C   1.0     0.186088     0.063385     0.604846  Biso 1.000000     C
    C   1.0     0.186095     0.563387     0.604846  Biso 1.000000     C
    C   1.0     0.686081     0.063385     0.604846  Biso 1.000000     C
    C   1.0     0.686088     0.563387     0.604847  Biso 1.000000     C
    C   1.0     0.170995     0.106201     0.683120  Biso 1.000000     C
    C   1.0     0.171003     0.606202     0.683121  Biso 1.000000     C
    C   1.0     0.670988     0.106200     0.683121  Biso 1.000000     C
    C   1.0     0.670995     0.606201     0.683122  Biso 1.000000     C
    C   1.0     0.080759     0.140321     0.678618  Biso 1.000000     C
    C   1.0     0.080767     0.640323     0.678619  Biso 1.000000     C
    C   1.0     0.580751     0.140320     0.678620  Biso 1.000000     C
    C   1.0     0.580759     0.640323     0.678621  Biso 1.000000     C
    C   1.0     0.237092     0.154580     0.831680  Biso 1.000000     C
    C   1.0     0.237100     0.654581     0.831681  Biso 1.000000     C
    C   1.0     0.737088     0.154580     0.831680  Biso 1.000000     C
    C   1.0     0.737097     0.654582     0.831680  Biso 1.000000     C
    C   1.0     0.250361     0.113803     0.761806  Biso 1.000000     C
    C   1.0     0.250369     0.613805     0.761807  Biso 1.000000     C
    C   1.0     0.750357     0.113804     0.761805  Biso 1.000000     C
    C   1.0     0.750367     0.613807     0.761805  Biso 1.000000     C
    C   1.0     0.076403     0.181319     0.750704  Biso 1.000000     C
    C   1.0     0.076412     0.681321     0.750705  Biso 1.000000     C
    C   1.0     0.576395     0.181318     0.750706  Biso 1.000000     C
    C   1.0     0.576403     0.681319     0.750707  Biso 1.000000     C
    C   1.0     0.064547     0.187934     0.107766  Biso 1.000000     C
    C   1.0     0.064560     0.687938     0.107768  Biso 1.000000     C
    C   1.0     0.564541     0.187934     0.107766  Biso 1.000000     C
    C   1.0     0.564554     0.687938     0.107768  Biso 1.000000     C
    C   1.0     0.079829     0.144286     0.185077  Biso 1.000000     C
    C   1.0     0.079845     0.644292     0.185080  Biso 1.000000     C
    C   1.0     0.579824     0.144286     0.185077  Biso 1.000000     C
    C   1.0     0.579839     0.644292     0.185080  Biso 1.000000     C
    C   1.0     0.169804     0.110083     0.179421  Biso 1.000000     C
    C   1.0     0.169810     0.610083     0.179418  Biso 1.000000     C
    C   1.0     0.669799     0.110083     0.179422  Biso 1.000000     C
    C   1.0     0.669804     0.610083     0.179418  Biso 1.000000     C
    C   1.0     0.013816     0.094329     0.332847  Biso 1.000000     C
    C   1.0     0.013823     0.594329     0.332845  Biso 1.000000     C
    C   1.0     0.513803     0.094325     0.332844  Biso 1.000000     C
    C   1.0     0.513813     0.594327     0.332843  Biso 1.000000     C
    C   1.0     0.500647     0.135914     0.263935  Biso 1.000000     C
    C   1.0     0.500653     0.635914     0.263933  Biso 1.000000     C
    C   1.0     0.000000     0.135918     0.263939  Biso 1.000000     C
    C   1.0     0.000000     0.635917     0.263935  Biso 1.000000     C
    C   1.0     0.174179     0.068308     0.250636  Biso 1.000000     C
    C   1.0     0.174188     0.568310     0.250634  Biso 1.000000     C
    C   1.0     0.674175     0.068309     0.250637  Biso 1.000000     C
    C   1.0     0.674183     0.568311     0.250635  Biso 1.000000     C
    N   1.0     0.347556     0.311193     0.173351  Biso 1.000000     N
    N   1.0     0.347570     0.811199     0.173348  Biso 1.000000     N
    N   1.0     0.847551     0.311194     0.173350  Biso 1.000000     N
    N   1.0     0.847564     0.811198     0.173349  Biso 1.000000     N
    N   1.0     0.401737     0.439940     0.673282  Biso 1.000000     N
    N   1.0     0.401752     0.939945     0.673283  Biso 1.000000     N
    N   1.0     0.901731     0.439940     0.673282  Biso 1.000000     N
    N   1.0     0.901746     0.939945     0.673283  Biso 1.000000     N
    N   1.0     0.152442     0.188800     0.826691  Biso 1.000000     N
    N   1.0     0.152451     0.688801     0.826692  Biso 1.000000     N
    N   1.0     0.652435     0.188799     0.826692  Biso 1.000000     N
    N   1.0     0.652442     0.688800     0.826694  Biso 1.000000     N
    N   1.0     0.098277     0.060062     0.326755  Biso 1.000000     N
    N   1.0     0.098294     0.560068     0.326759  Biso 1.000000     N
    N   1.0     0.598272     0.060063     0.326756  Biso 1.000000     N
    N   1.0     0.598288     0.560068     0.326759  Biso 1.000000     N
    O   1.0     0.409726     0.457620     0.448341  Biso 1.000000     O
    O   1.0     0.409735     0.957623     0.448342  Biso 1.000000     O
    O   1.0     0.909719     0.457620     0.448341  Biso 1.000000     O
    O   1.0     0.909729     0.957623     0.448342  Biso 1.000000     O
    O   1.0     0.206924     0.447952     0.402414  Biso 1.000000     O
    O   1.0     0.206933     0.947954     0.402414  Biso 1.000000     O
    O   1.0     0.706917     0.447952     0.402415  Biso 1.000000     O
    O   1.0     0.706927     0.947954     0.402414  Biso 1.000000     O
    O   1.0     0.340871     0.291776     0.946928  Biso 1.000000     O
    O   1.0     0.340881     0.791778     0.946927  Biso 1.000000     O
    O   1.0     0.840864     0.291776     0.946928  Biso 1.000000     O
    O   1.0     0.840874     0.791778     0.946927  Biso 1.000000     O
    O   1.0     0.041506     0.299471     0.897145  Biso 1.000000     O
    O   1.0     0.041516     0.799472     0.897144  Biso 1.000000     O
    O   1.0     0.541499     0.299471     0.897145  Biso 1.000000     O
    O   1.0     0.541510     0.799472     0.897144  Biso 1.000000     O
    O   1.0     0.090301     0.042383     0.551689  Biso 1.000000     O
    O   1.0     0.090309     0.542385     0.551690  Biso 1.000000     O
    O   1.0     0.590294     0.042383     0.551690  Biso 1.000000     O
    O   1.0     0.590302     0.542385     0.551690  Biso 1.000000     O
    O   1.0     0.293098     0.052050     0.597626  Biso 1.000000     O
    O   1.0     0.293106     0.552052     0.597626  Biso 1.000000     O
    O   1.0     0.793092     0.052050     0.597626  Biso 1.000000     O
    O   1.0     0.793100     0.552052     0.597625  Biso 1.000000     O
    O   1.0     0.159141     0.208223     0.053106  Biso 1.000000     O
    O   1.0     0.159152     0.708224     0.053105  Biso 1.000000     O
    O   1.0     0.659135     0.208223     0.053106  Biso 1.000000     O
    O   1.0     0.659145     0.708224     0.053105  Biso 1.000000     O
    O   1.0     0.458504     0.200528     0.102885  Biso 1.000000     O
    O   1.0     0.458513     0.700529     0.102883  Biso 1.000000     O
    O   1.0     0.958498     0.200529     0.102886  Biso 1.000000     O
    O   1.0     0.958507     0.700529     0.102883  Biso 1.000000     O
