#======================================================================

# CRYSTAL DATA

#----------------------------------------------------------------------

data_VESTA_phase_1


_pd_phase_name                         MOF
_cell_length_a                         10.85300
_cell_length_b                         22.59200
_cell_length_c                         14.31400
_cell_angle_alpha                      90.00600
_cell_angle_beta                       89.98500
_cell_angle_gamma                      105.99600
_symmetry_space_group_name_H-M         "P 1"
_symmetry_Int_Tables_number            1

loop_
_symmetry_equiv_pos_as_xyz
   "x, y, z"

loop_
   _atom_site_label
   _atom_site_occupancy
   _atom_site_fract_x
   _atom_site_fract_y
   _atom_site_fract_z
   _atom_site_adp_type
   _atom_site_B_iso_or_equiv
   _atom_site_type_symbol
    H   1.0     0.196549     0.462662     0.358209  Biso 1.000000     H
    H   1.0     0.194597     0.962310     0.357999  Biso 1.000000     H
    H   1.0     0.696540     0.462661     0.358211  Biso 1.000000     H
    H   1.0     0.694589     0.962309     0.358000  Biso 1.000000     H
    H   1.0     0.169324     0.035713     0.483771  Biso 1.000000     H
    H   1.0     0.170740     0.536193     0.483644  Biso 1.000000     H
    H   1.0     0.669316     0.035713     0.483771  Biso 1.000000     H
    H   1.0     0.670730     0.536192     0.483645  Biso 1.000000     H
    H   1.0     0.385587     0.084443     0.334590  Biso 1.000000     H
    H   1.0     0.387308     0.584623     0.333656  Biso 1.000000     H
    H   1.0     0.885579     0.084443     0.334592  Biso 1.000000     H
    H   1.0     0.887299     0.584622     0.333658  Biso 1.000000     H
    H   1.0     0.391763     0.009227     0.206854  Biso 1.000000     H
    H   1.0     0.394100     0.509321     0.206202  Biso 1.000000     H
    H   1.0     0.891755     0.009226     0.206856  Biso 1.000000     H
    H   1.0     0.894091     0.509319     0.206203  Biso 1.000000     H
    H   1.0     0.446254     0.212632     0.317298  Biso 1.000000     H
    H   1.0     0.445593     0.712730     0.316765  Biso 1.000000     H
    H   1.0     0.946247     0.212632     0.317298  Biso 1.000000     H
    H   1.0     0.945586     0.712730     0.316765  Biso 1.000000     H
    H   1.0     0.421643     0.286315     0.191744  Biso 1.000000     H
    H   1.0     0.419784     0.786221     0.191302  Biso 1.000000     H
    H   1.0     0.921637     0.286315     0.191744  Biso 1.000000     H
    H   1.0     0.919777     0.786220     0.191301  Biso 1.000000     H
    H   1.0     0.142922     0.259387     0.468182  Biso 1.000000     H
    H   1.0     0.143143     0.759434     0.468831  Biso 1.000000     H
    H   1.0     0.642916     0.259387     0.468182  Biso 1.000000     H
    H   1.0     0.643136     0.759434     0.468830  Biso 1.000000     H
    H   1.0     0.137354     0.334848     0.340666  Biso 1.000000     H
    H   1.0     0.136339     0.834692     0.341336  Biso 1.000000     H
    H   1.0     0.637348     0.334848     0.340665  Biso 1.000000     H
    H   1.0     0.636332     0.834691     0.341334  Biso 1.000000     H
    H   1.0     0.302287     0.038270     0.858189  Biso 1.000000     H
    H   1.0     0.303400     0.538533     0.858281  Biso 1.000000     H
    H   1.0     0.802278     0.038269     0.858189  Biso 1.000000     H
    H   1.0     0.803392     0.538532     0.858280  Biso 1.000000     H
    H   1.0     0.327932     0.464774     0.983731  Biso 1.000000     H
    H   1.0     0.326029     0.964319     0.983568  Biso 1.000000     H
    H   1.0     0.827925     0.464773     0.983731  Biso 1.000000     H
    H   1.0     0.826019     0.964318     0.983567  Biso 1.000000     H
    H   1.0     0.111423     0.415882     0.834376  Biso 1.000000     H
    H   1.0     0.110202     0.915540     0.834898  Biso 1.000000     H
    H   1.0     0.611415     0.415881     0.834376  Biso 1.000000     H
    H   1.0     0.610194     0.915539     0.834896  Biso 1.000000     H
    H   1.0     0.105390     0.491170     0.706637  Biso 1.000000     H
    H   1.0     0.105082     0.991084     0.707305  Biso 1.000000     H
    H   1.0     0.605382     0.491170     0.706636  Biso 1.000000     H
    H   1.0     0.605073     0.991083     0.707303  Biso 1.000000     H
    H   1.0     0.054021     0.288763     0.816612  Biso 1.000000     H
    H   1.0     0.052707     0.788468     0.816583  Biso 1.000000     H
    H   1.0     0.554014     0.288763     0.816612  Biso 1.000000     H
    H   1.0     0.552699     0.788467     0.816584  Biso 1.000000     H
    H   1.0     0.078084     0.214951     0.691061  Biso 1.000000     H
    H   1.0     0.077160     0.714712     0.691068  Biso 1.000000     H
    H   1.0     0.578076     0.214951     0.691060  Biso 1.000000     H
    H   1.0     0.577152     0.714710     0.691069  Biso 1.000000     H
    H   1.0     0.356272     0.241303     0.967654  Biso 1.000000     H
    H   1.0     0.354522     0.740953     0.968096  Biso 1.000000     H
    H   1.0     0.856267     0.241303     0.967653  Biso 1.000000     H
    H   1.0     0.854517     0.740954     0.968095  Biso 1.000000     H
    H   1.0     0.361716     0.165917     0.839888  Biso 1.000000     H
    H   1.0     0.360396     0.665642     0.840320  Biso 1.000000     H
    H   1.0     0.861709     0.165917     0.839887  Biso 1.000000     H
    H   1.0     0.860391     0.665642     0.840319  Biso 1.000000     H
   Li   1.0     0.470981     0.373354     0.020816  Biso 1.000000    Li
   Li   1.0     0.469298     0.873088     0.021045  Biso 1.000000    Li
   Li   1.0     0.970975     0.373354     0.020816  Biso 1.000000    Li
   Li   1.0     0.969292     0.873088     0.021045  Biso 1.000000    Li
   Li   1.0     0.279417     0.377434     0.154156  Biso 1.000000    Li
   Li   1.0     0.277183     0.877289     0.154205  Biso 1.000000    Li
   Li   1.0     0.779411     0.377433     0.154156  Biso 1.000000    Li
   Li   1.0     0.777177     0.877289     0.154205  Biso 1.000000    Li
   Li   1.0     0.027850     0.127245     0.521012  Biso 1.000000    Li
   Li   1.0     0.028304     0.627365     0.520594  Biso 1.000000    Li
   Li   1.0     0.527843     0.127245     0.521012  Biso 1.000000    Li
   Li   1.0     0.528297     0.627366     0.520594  Biso 1.000000    Li
   Li   1.0     0.220155     0.123258     0.653951  Biso 1.000000    Li
   Li   1.0     0.220120     0.623259     0.653941  Biso 1.000000    Li
   Li   1.0     0.720148     0.123258     0.653951  Biso 1.000000    Li
   Li   1.0     0.720114     0.623259     0.653941  Biso 1.000000    Li
    C   1.0     0.062980     0.437507     0.194545  Biso 1.000000     C
    C   1.0     0.060607     0.937405     0.194535  Biso 1.000000     C
    C   1.0     0.562974     0.437507     0.194545  Biso 1.000000     C
    C   1.0     0.560600     0.937403     0.194536  Biso 1.000000     C
    C   1.0     0.047692     0.480613     0.272025  Biso 1.000000     C
    C   1.0     0.045562     0.980430     0.272202  Biso 1.000000     C
    C   1.0     0.547686     0.480613     0.272025  Biso 1.000000     C
    C   1.0     0.545557     0.980431     0.272201  Biso 1.000000     C
    C   1.0     0.125458     0.488286     0.351602  Biso 1.000000     C
    C   1.0     0.123539     0.987970     0.351655  Biso 1.000000     C
    C   1.0     0.625450     0.488285     0.351603  Biso 1.000000     C
    C   1.0     0.623531     0.987970     0.351656  Biso 1.000000     C
    C   1.0     0.110256     0.029004     0.420829  Biso 1.000000     C
    C   1.0     0.111868     0.529391     0.420599  Biso 1.000000     C
    C   1.0     0.610249     0.029004     0.420829  Biso 1.000000     C
    C   1.0     0.611860     0.529390     0.420600  Biso 1.000000     C
    C   1.0     0.452165     0.056052     0.337761  Biso 1.000000     C
    C   1.0     0.453960     0.556280     0.337082  Biso 1.000000     C
    C   1.0     0.952158     0.056052     0.337762  Biso 1.000000     C
    C   1.0     0.953953     0.556279     0.337083  Biso 1.000000     C
    C   1.0     0.456662     0.014856     0.266231  Biso 1.000000     C
    C   1.0     0.458797     0.515035     0.265704  Biso 1.000000     C
    C   1.0     0.956656     0.014856     0.266231  Biso 1.000000     C
    C   1.0     0.958790     0.515034     0.265705  Biso 1.000000     C
    C   1.0     0.311484     0.187399     0.480386  Biso 1.000000     C
    C   1.0     0.311778     0.687498     0.480367  Biso 1.000000     C
    C   1.0     0.811478     0.187399     0.480386  Biso 1.000000     C
    C   1.0     0.811777     0.687502     0.480372  Biso 1.000000     C
    C   1.0     0.296883     0.230639     0.402925  Biso 1.000000     C
    C   1.0     0.296730     0.730705     0.402979  Biso 1.000000     C
    C   1.0     0.796876     0.230639     0.402925  Biso 1.000000     C
    C   1.0     0.796718     0.730702     0.402976  Biso 1.000000     C
    C   1.0     0.375186     0.238293     0.323605  Biso 1.000000     C
    C   1.0     0.374478     0.738344     0.323367  Biso 1.000000     C
    C   1.0     0.875180     0.238293     0.323605  Biso 1.000000     C
    C   1.0     0.874475     0.738345     0.323368  Biso 1.000000     C
    C   1.0     0.362291     0.279496     0.254572  Biso 1.000000     C
    C   1.0     0.360911     0.779442     0.254367  Biso 1.000000     C
    C   1.0     0.862285     0.279496     0.254571  Biso 1.000000     C
    C   1.0     0.860904     0.779440     0.254366  Biso 1.000000     C
    C   1.0     0.208016     0.265092     0.408888  Biso 1.000000     C
    C   1.0     0.207813     0.765116     0.409292  Biso 1.000000     C
    C   1.0     0.708010     0.265092     0.408888  Biso 1.000000     C
    C   1.0     0.707811     0.765118     0.409293  Biso 1.000000     C
    C   1.0     0.203895     0.306437     0.337505  Biso 1.000000     C
    C   1.0     0.203003     0.806353     0.337911  Biso 1.000000     C
    C   1.0     0.703888     0.306437     0.337504  Biso 1.000000     C
    C   1.0     0.702996     0.806352     0.337909  Biso 1.000000     C
    C   1.0     0.437321     0.063489     0.695163  Biso 1.000000     C
    C   1.0     0.437499     0.563554     0.694851  Biso 1.000000     C
    C   1.0     0.937316     0.063491     0.695165  Biso 1.000000     C
    C   1.0     0.937494     0.563555     0.694852  Biso 1.000000     C
    C   1.0     0.451552     0.020114     0.772603  Biso 1.000000     C
    C   1.0     0.452217     0.520295     0.772322  Biso 1.000000     C
    C   1.0     0.951543     0.020113     0.772603  Biso 1.000000     C
    C   1.0     0.952210     0.520294     0.772322  Biso 1.000000     C
    C   1.0     0.373138     0.012490     0.851877  Biso 1.000000     C
    C   1.0     0.374246     0.512761     0.851822  Biso 1.000000     C
    C   1.0     0.873131     0.012490     0.851877  Biso 1.000000     C
    C   1.0     0.874240     0.512761     0.851822  Biso 1.000000     C
    C   1.0     0.387141     0.471532     0.920827  Biso 1.000000     C
    C   1.0     0.385576     0.971156     0.920832  Biso 1.000000     C
    C   1.0     0.887134     0.471532     0.920827  Biso 1.000000     C
    C   1.0     0.885567     0.971155     0.920832  Biso 1.000000     C
    C   1.0     0.045048     0.444375     0.837604  Biso 1.000000     C
    C   1.0     0.043890     0.944069     0.837991  Biso 1.000000     C
    C   1.0     0.545040     0.444375     0.837604  Biso 1.000000     C
    C   1.0     0.543883     0.944068     0.837989  Biso 1.000000     C
    C   1.0     0.040740     0.485660     0.766169  Biso 1.000000     C
    C   1.0     0.040086     0.985490     0.766643  Biso 1.000000     C
    C   1.0     0.540732     0.485660     0.766168  Biso 1.000000     C
    C   1.0     0.540077     0.985489     0.766641  Biso 1.000000     C
    C   1.0     0.188267     0.313657     0.979875  Biso 1.000000     C
    C   1.0     0.186777     0.813417     0.979983  Biso 1.000000     C
    C   1.0     0.688259     0.313655     0.979877  Biso 1.000000     C
    C   1.0     0.686772     0.813419     0.979981  Biso 1.000000     C
    C   1.0     0.202936     0.270448     0.902302  Biso 1.000000     C
    C   1.0     0.201429     0.770146     0.902493  Biso 1.000000     C
    C   1.0     0.702932     0.270449     0.902300  Biso 1.000000     C
    C   1.0     0.701420     0.770145     0.902494  Biso 1.000000     C
    C   1.0     0.124808     0.262951     0.822920  Biso 1.000000     C
    C   1.0     0.123503     0.762667     0.823000  Biso 1.000000     C
    C   1.0     0.624800     0.262950     0.822921  Biso 1.000000     C
    C   1.0     0.623498     0.762667     0.822999  Biso 1.000000     C
    C   1.0     0.137433     0.221692     0.753869  Biso 1.000000     C
    C   1.0     0.136328     0.721430     0.753969  Biso 1.000000     C
    C   1.0     0.637426     0.221692     0.753869  Biso 1.000000     C
    C   1.0     0.636320     0.721429     0.753970  Biso 1.000000     C
    C   1.0     0.291439     0.235797     0.908254  Biso 1.000000     C
    C   1.0     0.289890     0.735481     0.908583  Biso 1.000000     C
    C   1.0     0.791431     0.235796     0.908254  Biso 1.000000     C
    C   1.0     0.789886     0.735482     0.908582  Biso 1.000000     C
    C   1.0     0.295448     0.194469     0.836796  Biso 1.000000     C
    C   1.0     0.294112     0.694182     0.837136  Biso 1.000000     C
    C   1.0     0.795442     0.194469     0.836795  Biso 1.000000     C
    C   1.0     0.794106     0.694182     0.837136  Biso 1.000000     C
    N   1.0     0.026910     0.063506     0.414469  Biso 1.000000     N
    N   1.0     0.028433     0.563831     0.413940  Biso 1.000000     N
    N   1.0     0.526904     0.063506     0.414468  Biso 1.000000     N
    N   1.0     0.528427     0.563831     0.413940  Biso 1.000000     N
    N   1.0     0.278915     0.313985     0.260913  Biso 1.000000     N
    N   1.0     0.277429     0.813861     0.261008  Biso 1.000000     N
    N   1.0     0.778909     0.313985     0.260913  Biso 1.000000     N
    N   1.0     0.777425     0.813860     0.261008  Biso 1.000000     N
    N   1.0     0.470314     0.436947     0.914353  Biso 1.000000     N
    N   1.0     0.468728     0.936553     0.914514  Biso 1.000000     N
    N   1.0     0.970308     0.436947     0.914353  Biso 1.000000     N
    N   1.0     0.968722     0.936553     0.914514  Biso 1.000000     N
    N   1.0     0.220477     0.187036     0.760207  Biso 1.000000     N
    N   1.0     0.219406     0.686797     0.760410  Biso 1.000000     N
    N   1.0     0.720469     0.187036     0.760207  Biso 1.000000     N
    N   1.0     0.719400     0.686796     0.760410  Biso 1.000000     N
    O   1.0     0.467998     0.417473     0.139552  Biso 1.000000     O
    O   1.0     0.465532     0.917480     0.139579  Biso 1.000000     O
    O   1.0     0.967992     0.417473     0.139553  Biso 1.000000     O
    O   1.0     0.965525     0.917480     0.139580  Biso 1.000000     O
    O   1.0     0.169026     0.424953     0.189918  Biso 1.000000     O
    O   1.0     0.166648     0.924850     0.189671  Biso 1.000000     O
    O   1.0     0.669019     0.424953     0.189918  Biso 1.000000     O
    O   1.0     0.666643     0.924851     0.189670  Biso 1.000000     O
    O   1.0     0.216321     0.167477     0.535291  Biso 1.000000     O
    O   1.0     0.216770     0.667548     0.535393  Biso 1.000000     O
    O   1.0     0.716314     0.167477     0.535291  Biso 1.000000     O
    O   1.0     0.716763     0.667545     0.535391  Biso 1.000000     O
    O   1.0     0.417453     0.174790     0.485259  Biso 1.000000     O
    O   1.0     0.417758     0.674889     0.485039  Biso 1.000000     O
    O   1.0     0.917447     0.174790     0.485259  Biso 1.000000     O
    O   1.0     0.917750     0.674886     0.485036  Biso 1.000000     O
    O   1.0     0.031545     0.082364     0.639069  Biso 1.000000     O
    O   1.0     0.031468     0.582388     0.638529  Biso 1.000000     O
    O   1.0     0.531538     0.082364     0.639069  Biso 1.000000     O
    O   1.0     0.531461     0.582388     0.638529  Biso 1.000000     O
    O   1.0     0.332440     0.077216     0.691482  Biso 1.000000     O
    O   1.0     0.332617     0.577297     0.691468  Biso 1.000000     O
    O   1.0     0.832433     0.077215     0.691481  Biso 1.000000     O
    O   1.0     0.832610     0.577296     0.691467  Biso 1.000000     O
    O   1.0     0.282271     0.332489     0.036140  Biso 1.000000     O
    O   1.0     0.280735     0.832242     0.036297  Biso 1.000000     O
    O   1.0     0.782266     0.332490     0.036139  Biso 1.000000     O
    O   1.0     0.780728     0.832241     0.036298  Biso 1.000000     O
    O   1.0     0.083314     0.327333     0.983408  Biso 1.000000     O
    O   1.0     0.081869     0.827138     0.983445  Biso 1.000000     O
    O   1.0     0.583309     0.327335     0.983407  Biso 1.000000     O
    O   1.0     0.581861     0.827136     0.983446  Biso 1.000000     O
