#======================================================================

# CRYSTAL DATA

#----------------------------------------------------------------------

data_VESTA_phase_1


_pd_phase_name                         MOF
_cell_length_a                         14.75000
_cell_length_b                         18.17100
_cell_length_c                         25.08600
_cell_angle_alpha                      90.11000
_cell_angle_beta                       90.02800
_cell_angle_gamma                      90.42300
_symmetry_space_group_name_H-M         "P 1"
_symmetry_Int_Tables_number            1

loop_
_symmetry_equiv_pos_as_xyz
   "x, y, z"

loop_
   _atom_site_label
   _atom_site_occupancy
   _atom_site_fract_x
   _atom_site_fract_y
   _atom_site_fract_z
   _atom_site_adp_type
   _atom_site_B_iso_or_equiv
   _atom_site_type_symbol
    H   1.0     0.468210     0.054410     0.574337  Biso 1.000000     H
    H   1.0     0.439822     0.190055     0.572404  Biso 1.000000     H
    H   1.0     0.541397     0.200070     0.734053  Biso 1.000000     H
    H   1.0     0.567687     0.064766     0.728475  Biso 1.000000     H
    H   1.0     0.605836     0.510014     0.503370  Biso 1.000000     H
    H   1.0     0.697448     0.513287     0.421354  Biso 1.000000     H
    H   1.0     0.756684     0.743099     0.448979  Biso 1.000000     H
    H   1.0     0.664390     0.738538     0.531791  Biso 1.000000     H
    H   1.0     0.822577     0.514326     0.381479  Biso 1.000000     H
    H   1.0     0.768997     0.746139     0.362914  Biso 1.000000     H
    H   1.0     0.838092     0.929603     0.661554  Biso 1.000000     H
    H   1.0     0.996321     0.883547     0.662839  Biso 1.000000     H
    H   1.0     0.894499     0.660793     0.652747  Biso 1.000000     H
    H   1.0     0.736621     0.708021     0.654372  Biso 1.000000     H
    H   1.0     0.913167     0.516777     0.298614  Biso 1.000000     H
    H   1.0     0.865678     0.748023     0.281784  Biso 1.000000     H
    H   1.0     0.525909     0.438545     0.578181  Biso 1.000000     H
    H   1.0     0.540105     0.301369     0.575727  Biso 1.000000     H
    H   1.0     0.407786     0.295484     0.729465  Biso 1.000000     H
    H   1.0     0.396018     0.432323     0.724356  Biso 1.000000     H
    H   1.0     0.389776     0.979297     0.504526  Biso 1.000000     H
    H   1.0     0.294926     0.976848     0.423121  Biso 1.000000     H
    H   1.0     0.283473     0.739905     0.430941  Biso 1.000000     H
    H   1.0     0.382713     0.743536     0.511791  Biso 1.000000     H
    H   1.0     0.154281     0.955888     0.391942  Biso 1.000000     H
    H   1.0     0.287211     0.758493     0.338797  Biso 1.000000     H
    H   1.0     0.175783     0.589875     0.693159  Biso 1.000000     H
    H   1.0     0.020439     0.640303     0.700457  Biso 1.000000     H
    H   1.0     0.106611     0.832926     0.613218  Biso 1.000000     H
    H   1.0     0.262508     0.782598     0.608331  Biso 1.000000     H
    H   1.0     0.068249     0.959765     0.306632  Biso 1.000000     H
    H   1.0     0.199201     0.762761     0.254151  Biso 1.000000     H
    H   1.0     0.971126     0.438488     0.077947  Biso 1.000000     H
    H   1.0     0.958855     0.300962     0.075477  Biso 1.000000     H
    H   1.0     0.097925     0.297589     0.227255  Biso 1.000000     H
    H   1.0     0.107169     0.434706     0.222295  Biso 1.000000     H
    H   1.0     0.111401     0.979661     0.002683  Biso 1.000000     H
    H   1.0     0.204101     0.978396     0.920360  Biso 1.000000     H
    H   1.0     0.217573     0.741738     0.928700  Biso 1.000000     H
    H   1.0     0.120695     0.744087     0.010551  Biso 1.000000     H
    H   1.0     0.347489     0.957588     0.890182  Biso 1.000000     H
    H   1.0     0.209694     0.761435     0.835719  Biso 1.000000     H
    H   1.0     0.327331     0.586728     0.191665  Biso 1.000000     H
    H   1.0     0.483848     0.636727     0.198485  Biso 1.000000     H
    H   1.0     0.396974     0.835696     0.120633  Biso 1.000000     H
    H   1.0     0.240245     0.785131     0.115557  Biso 1.000000     H
    H   1.0     0.435951     0.960716     0.805669  Biso 1.000000     H
    H   1.0     0.300011     0.764960     0.751846  Biso 1.000000     H
    H   1.0     0.033710     0.055692     0.072441  Biso 1.000000     H
    H   1.0     0.059025     0.192080     0.070040  Biso 1.000000     H
    H   1.0     0.969451     0.199080     0.234136  Biso 1.000000     H
    H   1.0     0.946342     0.063042     0.229084  Biso 1.000000     H
    H   1.0     0.896384     0.512492     0.001474  Biso 1.000000     H
    H   1.0     0.803028     0.516105     0.919990  Biso 1.000000     H
    H   1.0     0.744759     0.744809     0.949893  Biso 1.000000     H
    H   1.0     0.838256     0.739780     0.032350  Biso 1.000000     H
    H   1.0     0.674157     0.516757     0.883142  Biso 1.000000     H
    H   1.0     0.732704     0.748106     0.862833  Biso 1.000000     H
    H   1.0     0.668171     0.929869     0.168542  Biso 1.000000     H
    H   1.0     0.509766     0.882824     0.170616  Biso 1.000000     H
    H   1.0     0.608631     0.661675     0.150339  Biso 1.000000     H
    H   1.0     0.766995     0.709570     0.151503  Biso 1.000000     H
    H   1.0     0.582175     0.518467     0.800623  Biso 1.000000     H
    H   1.0     0.634802     0.749303     0.782035  Biso 1.000000     H
    H   1.0     0.030509     0.558812     0.921893  Biso 1.000000     H
    H   1.0     0.042518     0.696343     0.923968  Biso 1.000000     H
    H   1.0     0.900898     0.698867     0.773000  Biso 1.000000     H
    H   1.0     0.892010     0.561757     0.778334  Biso 1.000000     H
    H   1.0     0.888750     0.017138     0.997444  Biso 1.000000     H
    H   1.0     0.796170     0.018557     0.079805  Biso 1.000000     H
    H   1.0     0.783155     0.255238     0.071435  Biso 1.000000     H
    H   1.0     0.879907     0.252719     0.989539  Biso 1.000000     H
    H   1.0     0.653181     0.039252     0.109955  Biso 1.000000     H
    H   1.0     0.790323     0.235734     0.164373  Biso 1.000000     H
    H   1.0     0.672506     0.410582     0.810364  Biso 1.000000     H
    H   1.0     0.516010     0.360618     0.803269  Biso 1.000000     H
    H   1.0     0.602696     0.161145     0.880520  Biso 1.000000     H
    H   1.0     0.759499     0.211544     0.885666  Biso 1.000000     H
    H   1.0     0.564537     0.036094     0.194394  Biso 1.000000     H
    H   1.0     0.699830     0.232162     0.248169  Biso 1.000000     H
    H   1.0     0.967076     0.941019     0.927588  Biso 1.000000     H
    H   1.0     0.941790     0.804626     0.929929  Biso 1.000000     H
    H   1.0     0.029046     0.798013     0.765383  Biso 1.000000     H
    H   1.0     0.052237     0.934053     0.770518  Biso 1.000000     H
    H   1.0     0.105372     0.484833     0.998174  Biso 1.000000     H
    H   1.0     0.197639     0.481747     0.080035  Biso 1.000000     H
    H   1.0     0.256389     0.252890     0.051090  Biso 1.000000     H
    H   1.0     0.163750     0.257335     0.968286  Biso 1.000000     H
    H   1.0     0.325064     0.481470     0.118207  Biso 1.000000     H
    H   1.0     0.267549     0.249839     0.137940  Biso 1.000000     H
    H   1.0     0.331946     0.067091     0.831909  Biso 1.000000     H
    H   1.0     0.490308     0.114282     0.830379  Biso 1.000000     H
    H   1.0     0.391020     0.335247     0.850968  Biso 1.000000     H
    H   1.0     0.232721     0.287230     0.849235  Biso 1.000000     H
    H   1.0     0.415783     0.479908     0.201194  Biso 1.000000     H
    H   1.0     0.364419     0.248811     0.219141  Biso 1.000000     H
    H   1.0     0.531720     0.942867     0.426071  Biso 1.000000     H
    H   1.0     0.559939     0.807225     0.428582  Biso 1.000000     H
    H   1.0     0.458195     0.795989     0.267002  Biso 1.000000     H
    H   1.0     0.432031     0.931330     0.272024  Biso 1.000000     H
    H   1.0     0.394979     0.485434     0.497876  Biso 1.000000     H
    H   1.0     0.303177     0.482236     0.579857  Biso 1.000000     H
    H   1.0     0.243122     0.252627     0.551946  Biso 1.000000     H
    H   1.0     0.335437     0.257184     0.469054  Biso 1.000000     H
    H   1.0     0.177173     0.481438     0.618800  Biso 1.000000     H
    H   1.0     0.231418     0.249914     0.638448  Biso 1.000000     H
    H   1.0     0.161847     0.067289     0.336528  Biso 1.000000     H
    H   1.0     0.003581     0.113302     0.335532  Biso 1.000000     H
    H   1.0     0.105234     0.335954     0.347218  Biso 1.000000     H
    H   1.0     0.263143     0.288825     0.345436  Biso 1.000000     H
    H   1.0     0.086264     0.479535     0.701591  Biso 1.000000     H
    H   1.0     0.134331     0.248511     0.719474  Biso 1.000000     H
    H   1.0     0.474469     0.558487     0.423696  Biso 1.000000     H
    H   1.0     0.460016     0.695649     0.425738  Biso 1.000000     H
    H   1.0     0.591777     0.700809     0.271826  Biso 1.000000     H
    H   1.0     0.603778     0.564002     0.277321  Biso 1.000000     H
    H   1.0     0.609829     0.017643     0.495630  Biso 1.000000     H
    H   1.0     0.704557     0.020173     0.577039  Biso 1.000000     H
    H   1.0     0.715442     0.257152     0.569354  Biso 1.000000     H
    H   1.0     0.616285     0.253430     0.488475  Biso 1.000000     H
    H   1.0     0.844855     0.041174     0.608167  Biso 1.000000     H
    H   1.0     0.712146     0.238534     0.661548  Biso 1.000000     H
    H   1.0     0.823803     0.407063     0.306824  Biso 1.000000     H
    H   1.0     0.979210     0.356808     0.299283  Biso 1.000000     H
    H   1.0     0.893354     0.163437     0.385755  Biso 1.000000     H
    H   1.0     0.737423     0.213691     0.390976  Biso 1.000000     H
    H   1.0     0.930983     0.037079     0.693447  Biso 1.000000     H
    H   1.0     0.800365     0.234123     0.746126  Biso 1.000000     H
    C   1.0     0.483870     0.089282     0.608447  Biso 1.000000     C
    C   1.0     0.467988     0.164412     0.607902  Biso 1.000000     C
    C   1.0     0.488314     0.206409     0.653366  Biso 1.000000     C
    C   1.0     0.523410     0.169929     0.697947  Biso 1.000000     C
    C   1.0     0.538869     0.094686     0.694983  Biso 1.000000     C
    C   1.0     0.629454     0.624169     0.523153  Biso 1.000000     C
    C   1.0     0.639791     0.560907     0.491694  Biso 1.000000     C
    C   1.0     0.691798     0.562956     0.445491  Biso 1.000000     C
    C   1.0     0.734231     0.628534     0.428471  Biso 1.000000     C
    C   1.0     0.722850     0.691899     0.460239  Biso 1.000000     C
    C   1.0     0.671926     0.689754     0.506897  Biso 1.000000     C
    C   1.0     0.789046     0.630259     0.379085  Biso 1.000000     C
    C   1.0     0.830194     0.565804     0.359728  Biso 1.000000     C
    C   1.0     0.802055     0.695730     0.349899  Biso 1.000000     C
    C   1.0     0.681980     0.848019     0.657598  Biso 1.000000     C
    C   1.0     0.777804     0.821657     0.657942  Biso 1.000000     C
    C   1.0     0.851402     0.870809     0.659783  Biso 1.000000     C
    C   1.0     0.939846     0.844590     0.660284  Biso 1.000000     C
    C   1.0     0.957498     0.768540     0.658118  Biso 1.000000     C
    C   1.0     0.882781     0.719786     0.656236  Biso 1.000000     C
    C   1.0     0.794301     0.745730     0.656576  Biso 1.000000     C
    C   1.0     0.952628     0.633454     0.235915  Biso 1.000000     C
    C   1.0     0.895711     0.632553     0.285311  Biso 1.000000     C
    C   1.0     0.881754     0.566857     0.313406  Biso 1.000000     C
    C   1.0     0.855333     0.697239     0.304101  Biso 1.000000     C
    C   1.0     0.575936     0.622596     0.573801  Biso 1.000000     C
    C   1.0     0.500679     0.404305     0.610562  Biso 1.000000     C
    C   1.0     0.508294     0.328316     0.609615  Biso 1.000000     C
    C   1.0     0.476639     0.287096     0.653048  Biso 1.000000     C
    C   1.0     0.435749     0.324937     0.695348  Biso 1.000000     C
    C   1.0     0.428821     0.401099     0.692724  Biso 1.000000     C
    C   1.0     0.393790     0.861381     0.512591  Biso 1.000000     C
    C   1.0     0.366264     0.926938     0.488256  Biso 1.000000     C
    C   1.0     0.311976     0.925404     0.442937  Biso 1.000000     C
    C   1.0     0.282685     0.858053     0.420731  Biso 1.000000     C
    C   1.0     0.308332     0.792499     0.446329  Biso 1.000000     C
    C   1.0     0.363300     0.794033     0.491464  Biso 1.000000     C
    C   1.0     0.227914     0.857426     0.371407  Biso 1.000000     C
    C   1.0     0.165210     0.913828     0.361630  Biso 1.000000     C
    C   1.0     0.238485     0.802432     0.332316  Biso 1.000000     C
    C   1.0     0.320844     0.651001     0.643011  Biso 1.000000     C
    C   1.0     0.228273     0.682478     0.649392  Biso 1.000000     C
    C   1.0     0.159636     0.643030     0.675731  Biso 1.000000     C
    C   1.0     0.072641     0.671561     0.679472  Biso 1.000000     C
    C   1.0     0.051239     0.740188     0.656796  Biso 1.000000     C
    C   1.0     0.121435     0.780133     0.631729  Biso 1.000000     C
    C   1.0     0.208613     0.751899     0.628146  Biso 1.000000     C
    C   1.0     0.079408     0.866585     0.223110  Biso 1.000000     C
    C   1.0     0.129236     0.862110     0.274942  Biso 1.000000     C
    C   1.0     0.116693     0.916091     0.314223  Biso 1.000000     C
    C   1.0     0.190014     0.804710     0.284710  Biso 1.000000     C
    C   1.0     0.455221     0.862340     0.560148  Biso 1.000000     C
    C   1.0     0.998056     0.404687     0.109957  Biso 1.000000     C
    C   1.0     0.991656     0.328542     0.108946  Biso 1.000000     C
    C   1.0     0.025968     0.287921     0.151803  Biso 1.000000     C
    C   1.0     0.067949     0.326522     0.193638  Biso 1.000000     C
    C   1.0     0.073451     0.402815     0.191120  Biso 1.000000     C
    C   1.0     0.108765     0.861739     0.011122  Biso 1.000000     C
    C   1.0     0.134879     0.927631     0.986302  Biso 1.000000     C
    C   1.0     0.187918     0.926808     0.940492  Biso 1.000000     C
    C   1.0     0.217152     0.859815     0.918302  Biso 1.000000     C
    C   1.0     0.192630     0.793935     0.944206  Biso 1.000000     C
    C   1.0     0.139094     0.794786    -0.010112  Biso 1.000000     C
    C   1.0     0.271680     0.859618     0.868944  Biso 1.000000     C
    C   1.0     0.336071     0.915674     0.859719  Biso 1.000000     C
    C   1.0     0.260001     0.804911     0.829665  Biso 1.000000     C
    C   1.0     0.181403     0.650864     0.145408  Biso 1.000000     C
    C   1.0     0.274569     0.682213     0.152189  Biso 1.000000     C
    C   1.0     0.343626     0.641118     0.176081  Biso 1.000000     C
    C   1.0     0.431255     0.669509     0.179650  Biso 1.000000     C
    C   1.0     0.452816     0.739875     0.159539  Biso 1.000000     C
    C   1.0     0.382151     0.781461     0.137117  Biso 1.000000     C
    C   1.0     0.294467     0.753196     0.133441  Biso 1.000000     C
    C   1.0     0.425122     0.866816     0.722450  Biso 1.000000     C
    C   1.0     0.372902     0.863449     0.773491  Biso 1.000000     C
    C   1.0     0.385903     0.917498     0.812785  Biso 1.000000     C
    C   1.0     0.309763     0.806770     0.782532  Biso 1.000000     C
    C   1.0     0.049023     0.861729     0.059363  Biso 1.000000     C
    C   1.0     0.019932     0.090090     0.106986  Biso 1.000000     C
    C   1.0     0.034033     0.165637     0.106147  Biso 1.000000     C
    C   1.0     0.000000     0.206983     0.152145  Biso 1.000000     C
    C   1.0     0.985255     0.169522     0.197536  Biso 1.000000     C
    C   1.0     0.971527     0.093889     0.194898  Biso 1.000000     C
    C   1.0     0.872901     0.625976     0.022425  Biso 1.000000     C
    C   1.0     0.862184     0.563148     0.990417  Biso 1.000000     C
    C   1.0     0.809270     0.565388     0.944573  Biso 1.000000     C
    C   1.0     0.766558     0.630770     0.928460  Biso 1.000000     C
    C   1.0     0.778687     0.693812     0.960596  Biso 1.000000     C
    C   1.0     0.830340     0.691401     0.006989  Biso 1.000000     C
    C   1.0     0.710464     0.632431     0.879602  Biso 1.000000     C
    C   1.0     0.667360     0.567907     0.860991  Biso 1.000000     C
    C   1.0     0.698282     0.697675     0.850228  Biso 1.000000     C
    C   1.0     0.823174     0.849925     0.158813  Biso 1.000000     C
    C   1.0     0.727247     0.822662     0.159884  Biso 1.000000     C
    C   1.0     0.654261     0.871170     0.164748  Biso 1.000000     C
    C   1.0     0.565610     0.844396     0.165643  Biso 1.000000     C
    C   1.0     0.546983     0.768511     0.160725  Biso 1.000000     C
    C   1.0     0.621095     0.720416     0.155908  Biso 1.000000     C
    C   1.0     0.709897     0.746818     0.155950  Biso 1.000000     C
    C   1.0     0.545499     0.634113     0.737044  Biso 1.000000     C
    C   1.0     0.602311     0.633962     0.786488  Biso 1.000000     C
    C   1.0     0.615026     0.568578     0.814968  Biso 1.000000     C
    C   1.0     0.644308     0.698798     0.804678  Biso 1.000000     C
    C   1.0     0.926496     0.623955     0.073016  Biso 1.000000     C
    C   1.0     0.002936     0.592419     0.889967  Biso 1.000000     C
    C   1.0     0.009200     0.668564     0.890761  Biso 1.000000     C
    C   1.0     0.974023     0.708959     0.848038  Biso 1.000000     C
    C   1.0     0.931478     0.670121     0.806515  Biso 1.000000     C
    C   1.0     0.926168     0.593827     0.809248  Biso 1.000000     C
    C   1.0     0.891585     0.135052     0.988979  Biso 1.000000     C
    C   1.0     0.865403     0.069204     0.013830  Biso 1.000000     C
    C   1.0     0.812407     0.070117     0.059653  Biso 1.000000     C
    C   1.0     0.783310     0.137151     0.081844  Biso 1.000000     C
    C   1.0     0.807943     0.202994     0.055924  Biso 1.000000     C
    C   1.0     0.861447     0.202054     0.000000  Biso 1.000000     C
    C   1.0     0.728696     0.137380     0.131170  Biso 1.000000     C
    C   1.0     0.664425     0.081231     0.140392  Biso 1.000000     C
    C   1.0     0.740133     0.192167     0.170418  Biso 1.000000     C
    C   1.0     0.818598     0.345682     0.856064  Biso 1.000000     C
    C   1.0     0.725234     0.314716     0.849404  Biso 1.000000     C
    C   1.0     0.656199     0.356073     0.825735  Biso 1.000000     C
    C   1.0     0.568571     0.327711     0.822019  Biso 1.000000     C
    C   1.0     0.546978     0.257205     0.841863  Biso 1.000000     C
    C   1.0     0.617578     0.215453     0.864182  Biso 1.000000     C
    C   1.0     0.705278     0.243632     0.867927  Biso 1.000000     C
    C   1.0     0.574944     0.130068     0.277553  Biso 1.000000     C
    C   1.0     0.627260     0.133503     0.226547  Biso 1.000000     C
    C   1.0     0.614489     0.079385     0.187283  Biso 1.000000     C
    C   1.0     0.690263     0.190286     0.217513  Biso 1.000000     C
    C   1.0     0.951212     0.134950     0.940693  Biso 1.000000     C
    C   1.0     0.980398     0.906701     0.892937  Biso 1.000000     C
    C   1.0     0.966303     0.831157     0.893743  Biso 1.000000     C
    C   1.0    -0.016312     0.789912     0.847616  Biso 1.000000     C
    C   1.0     0.013788     0.827475     0.802107  Biso 1.000000     C
    C   1.0     0.027572     0.903103     0.804785  Biso 1.000000     C
    C   1.0     0.129001     0.371206     0.977684  Biso 1.000000     C
    C   1.0     0.139475     0.434258     0.009506  Biso 1.000000     C
    C   1.0     0.191762     0.432305     0.055594  Biso 1.000000     C
    C   1.0     0.234265     0.367031     0.072119  Biso 1.000000     C
    C   1.0     0.222583     0.303817     0.040092  Biso 1.000000     C
    C   1.0     0.171465     0.305914     0.993472  Biso 1.000000     C
    C   1.0     0.289464     0.365608     0.121344  Biso 1.000000     C
    C   1.0     0.331821     0.430273     0.140304  Biso 1.000000     C
    C   1.0     0.301515     0.300370     0.150748  Biso 1.000000     C
    C   1.0     0.176780     0.146904     0.841335  Biso 1.000000     C
    C   1.0     0.272680     0.174224     0.840630  Biso 1.000000     C
    C   1.0     0.345753     0.125784     0.835876  Biso 1.000000     C
    C   1.0     0.434373     0.152638     0.835288  Biso 1.000000     C
    C   1.0     0.452861     0.228516     0.840433  Biso 1.000000     C
    C   1.0     0.378665     0.276529     0.845194  Biso 1.000000     C
    C   1.0     0.289902     0.250058     0.844833  Biso 1.000000     C
    C   1.0     0.453002     0.363904     0.264488  Biso 1.000000     C
    C   1.0     0.396249     0.364282     0.215022  Biso 1.000000     C
    C   1.0     0.383433     0.429706     0.186622  Biso 1.000000     C
    C   1.0     0.354850     0.299348     0.196549  Biso 1.000000     C
    C   1.0     0.075194     0.372956     0.927161  Biso 1.000000     C
    C   1.0     0.516001     0.907734     0.392112  Biso 1.000000     C
    C   1.0     0.531769     0.832591     0.392979  Biso 1.000000     C
    C   1.0     0.511423     0.790243     0.347686  Biso 1.000000     C
    C   1.0     0.476255     0.826391     0.302981  Biso 1.000000     C
    C   1.0     0.460902     0.901674     0.305624  Biso 1.000000     C
    C   1.0     0.370775     0.371432     0.477936  Biso 1.000000     C
    C   1.0     0.360745     0.434640     0.509485  Biso 1.000000     C
    C   1.0     0.308694     0.432630     0.555642  Biso 1.000000     C
    C   1.0     0.265970     0.367118     0.572508  Biso 1.000000     C
    C   1.0     0.277159     0.303756     0.540717  Biso 1.000000     C
    C   1.0     0.328060     0.305901     0.494041  Biso 1.000000     C
    C   1.0     0.211004     0.365606     0.621806  Biso 1.000000     C
    C   1.0     0.169610     0.430158     0.640797  Biso 1.000000     C
    C   1.0     0.198106     0.300335     0.651217  Biso 1.000000     C
    C   1.0     0.317918     0.148868     0.341356  Biso 1.000000     C
    C   1.0     0.222062     0.175205     0.340933  Biso 1.000000     C
    C   1.0     0.148493     0.126054     0.338694  Biso 1.000000     C
    C   1.0     0.060033     0.152248     0.338353  Biso 1.000000     C
    C   1.0     0.042331     0.228260     0.341048  Biso 1.000000     C
    C   1.0     0.117011     0.277016     0.343308  Biso 1.000000     C
    C   1.0     0.205513     0.251108     0.342867  Biso 1.000000     C
    C   1.0     0.046789     0.363181     0.764596  Biso 1.000000     C
    C   1.0     0.103999     0.363888     0.715354  Biso 1.000000     C
    C   1.0     0.117889     0.429403     0.687049  Biso 1.000000     C
    C   1.0     0.144638     0.299109     0.696932  Biso 1.000000     C
    C   1.0     0.424381     0.373326     0.427367  Biso 1.000000     C
    C   1.0     0.499496     0.592554     0.391161  Biso 1.000000     C
    C   1.0     0.491769     0.668546     0.391898  Biso 1.000000     C
    C   1.0     0.523143     0.709556     0.348283  Biso 1.000000     C
    C   1.0     0.563985     0.671515     0.306062  Biso 1.000000     C
    C   1.0     0.571031     0.595374     0.308896  Biso 1.000000     C
    C   1.0     0.605515     0.135561     0.487603  Biso 1.000000     C
    C   1.0     0.633185     0.070035     0.511920  Biso 1.000000     C
    C   1.0     0.687405     0.071621     0.557265  Biso 1.000000     C
    C   1.0     0.716528     0.138999     0.579507  Biso 1.000000     C
    C   1.0     0.690710     0.204532     0.553941  Biso 1.000000     C
    C   1.0     0.635814     0.202944     0.508775  Biso 1.000000     C
    C   1.0     0.771312     0.139610     0.628827  Biso 1.000000     C
    C   1.0     0.833997     0.083172     0.638532  Biso 1.000000     C
    C   1.0     0.760850     0.194557     0.667964  Biso 1.000000     C
    C   1.0     0.678879     0.345361     0.356971  Biso 1.000000     C
    C   1.0     0.771493     0.314097     0.350272  Biso 1.000000     C
    C   1.0     0.840024     0.353789     0.324038  Biso 1.000000     C
    C   1.0     0.927059     0.325351     0.320156  Biso 1.000000     C
    C   1.0     0.948565     0.256555     0.342530  Biso 1.000000     C
    C   1.0     0.878455     0.216369     0.367476  Biso 1.000000     C
    C   1.0     0.791269     0.244529     0.371229  Biso 1.000000     C
    C   1.0     0.920234     0.130212     0.776983  Biso 1.000000     C
    C   1.0     0.870189     0.134751     0.725222  Biso 1.000000     C
    C   1.0     0.882585     0.080803     0.685906  Biso 1.000000     C
    C   1.0     0.809429     0.192196     0.715535  Biso 1.000000     C
    C   1.0     0.544185     0.134545     0.440003  Biso 1.000000     C
    N   1.0     0.519941     0.054662     0.650973  Biso 1.000000     N
    N   1.0     0.461686     0.440601     0.651457  Biso 1.000000     N
    N   1.0     0.038212     0.441641     0.150382  Biso 1.000000     N
    N   1.0     0.987987     0.054502     0.150361  Biso 1.000000     N
    N   1.0     0.962113     0.555231     0.849889  Biso 1.000000     N
    N   1.0     0.011792     0.942372     0.849465  Biso 1.000000     N
    N   1.0     0.479954     0.942055     0.349447  Biso 1.000000     N
    N   1.0     0.538402     0.556077     0.350326  Biso 1.000000     N
    O   1.0     0.668278     0.915673     0.643726  Biso 1.000000     O
    O   1.0     0.964596     0.570421     0.213452  Biso 1.000000     O
    O   1.0     0.523513     0.566176     0.580881  Biso 1.000000     O
    O   1.0     0.586541     0.674686     0.606576  Biso 1.000000     O
    O   1.0     0.620480     0.803735     0.671430  Biso 1.000000     O
    O   1.0     0.984941     0.694173     0.220389  Biso 1.000000     O
    O   1.0     0.332634     0.584463     0.659687  Biso 1.000000     O
    O   1.0     0.026243     0.922044     0.217761  Biso 1.000000     O
    O   1.0     0.467666     0.925602     0.582475  Biso 1.000000     O
    O   1.0     0.491386     0.802861     0.574327  Biso 1.000000     O
    O   1.0     0.382295     0.688606     0.620650  Biso 1.000000     O
    O   1.0     0.093682     0.818404     0.187732  Biso 1.000000     O
    O   1.0     0.167690     0.584347     0.161902  Biso 1.000000     O
    O   1.0     0.480669     0.921514     0.717684  Biso 1.000000     O
    O   1.0     0.035404     0.924999     0.081216  Biso 1.000000     O
    O   1.0     0.015490     0.801260     0.074427  Biso 1.000000     O
    O   1.0     0.121175     0.688657     0.122682  Biso 1.000000     O
    O   1.0     0.410505     0.818342     0.687206  Biso 1.000000     O
    O   1.0     0.836768     0.918086     0.145885  Biso 1.000000     O
    O   1.0     0.531877     0.570577     0.715423  Biso 1.000000     O
    O   1.0     0.979908     0.568560     0.079168  Biso 1.000000     O
    O   1.0     0.914878     0.674756     0.106647  Biso 1.000000     O
    O   1.0     0.885344     0.806040     0.171065  Biso 1.000000     O
    O   1.0     0.515018     0.694577     0.720586  Biso 1.000000     O
    O   1.0     0.832314     0.412551     0.840304  Biso 1.000000     O
    O   1.0     0.519549     0.075270     0.282315  Biso 1.000000     O
    O   1.0     0.964565     0.071685     0.918781  Biso 1.000000     O
    O   1.0     0.984963     0.195334     0.925639  Biso 1.000000     O
    O   1.0     0.878910     0.307102     0.877956  Biso 1.000000     O
    O   1.0     0.589361     0.178602     0.312779  Biso 1.000000     O
    O   1.0     0.163129     0.078719     0.854159  Biso 1.000000     O
    O   1.0     0.465221     0.427037     0.286974  Biso 1.000000     O
    O   1.0     0.022371     0.428741     0.921014  Biso 1.000000     O
    O   1.0     0.085778     0.321882     0.893655  Biso 1.000000     O
    O   1.0     0.114687     0.190775     0.828906  Biso 1.000000     O
    O   1.0     0.484908     0.303414     0.280018  Biso 1.000000     O
    O   1.0     0.331502     0.080907     0.354421  Biso 1.000000     O
    O   1.0     0.034854     0.426161     0.787086  Biso 1.000000     O
    O   1.0     0.477692     0.429410     0.421108  Biso 1.000000     O
    O   1.0     0.413143     0.322177     0.393904  Biso 1.000000     O
    O   1.0     0.379546     0.193549     0.328450  Biso 1.000000     O
    O   1.0     0.014168     0.302469     0.779952  Biso 1.000000     O
    O   1.0     0.666641     0.411951     0.340500  Biso 1.000000     O
    O   1.0     0.973448     0.074755     0.782227  Biso 1.000000     O
    O   1.0     0.531668     0.071252     0.417715  Biso 1.000000     O
    O   1.0     0.508184     0.194019     0.425713  Biso 1.000000     O
    O   1.0     0.617879     0.307426     0.379469  Biso 1.000000     O
    O   1.0     0.906148     0.178359     0.812389  Biso 1.000000     O
   Zn   1.0     0.538370     0.940515     0.648308  Biso 1.000000    Zn
   Zn   1.0     0.461007     0.555899     0.650220  Biso 1.000000    Zn
   Zn   1.0     0.038937     0.556493     0.149537  Biso 1.000000    Zn
   Zn   1.0     0.968753     0.940385     0.148276  Biso 1.000000    Zn
   Zn   1.0     0.499916     0.747172     0.647772  Biso 1.000000    Zn
   Zn   1.0     0.003714     0.746990     0.147947  Biso 1.000000    Zn
   Zn   1.0     0.961234     0.440368     0.851495  Biso 1.000000    Zn
   Zn   1.0     0.031160     0.056457     0.851669  Biso 1.000000    Zn
   Zn   1.0     0.461598     0.056285     0.351629  Biso 1.000000    Zn
   Zn   1.0     0.538756     0.440819     0.351583  Biso 1.000000    Zn
   Zn   1.0    -0.003660     0.249727     0.852197  Biso 1.000000    Zn
   Zn   1.0     0.499964     0.249734     0.352310  Biso 1.000000    Zn
