#======================================================================

# CRYSTAL DATA

#----------------------------------------------------------------------

data_VESTA_phase_1


_pd_phase_name                         MOF
_cell_length_a                         9.99800
_cell_length_b                         16.52500
_cell_length_c                         12.64100
_cell_angle_alpha                      89.83700
_cell_angle_beta                       89.87100
_cell_angle_gamma                      88.71700
_symmetry_space_group_name_H-M         "P 1"
_symmetry_Int_Tables_number            1

loop_
_symmetry_equiv_pos_as_xyz
   "x, y, z"

loop_
   _atom_site_label
   _atom_site_occupancy
   _atom_site_fract_x
   _atom_site_fract_y
   _atom_site_fract_z
   _atom_site_adp_type
   _atom_site_B_iso_or_equiv
   _atom_site_type_symbol
    C   1.0     0.553390     0.293333     0.555575  Biso 1.000000     C
    C   1.0     0.443749     0.780991     0.461325  Biso 1.000000     C
    C   1.0     0.942771     0.281643     0.460148  Biso 1.000000     C
    C   1.0     0.000000     0.793608     0.558061  Biso 1.000000     C
    C   1.0     0.052598     0.220023     0.960446  Biso 1.000000     C
    C   1.0    -0.050842     0.707498     0.000000  Biso 1.000000     C
    C   1.0     0.448186     0.207646     0.000000  Biso 1.000000     C
    C   1.0     0.554159     0.720099     0.960797  Biso 1.000000     C
    C   1.0    -0.054002     0.209446     0.440227  Biso 1.000000     C
    C   1.0     0.057328     0.721361     0.538662  Biso 1.000000     C
    C   1.0     0.555253     0.221157     0.535585  Biso 1.000000     C
    C   1.0     0.446922     0.708807     0.441333  Biso 1.000000     C
    C   1.0     0.444411     0.279744     0.037597  Biso 1.000000     C
    C   1.0     0.549866     0.792107    -0.060769  Biso 1.000000     C
    C   1.0     0.000000     0.292091    -0.060813  Biso 1.000000     C
    C   1.0     0.945150     0.779386     0.037721  Biso 1.000000     C
    O   1.0     0.116717     0.385001     0.523625  Biso 1.000000     O
    O   1.0     0.140887     0.933589     0.495817  Biso 1.000000     O
    O   1.0     0.643155     0.433857     0.495036  Biso 1.000000     O
    O   1.0     0.615751     0.885135     0.527610  Biso 1.000000     O
    O   1.0     0.389858     0.406197     0.499798  Biso 1.000000     O
    O   1.0     0.400192     0.944294     0.450054  Biso 1.000000     O
    O   1.0     0.900909     0.445353     0.448940  Biso 1.000000     O
    O   1.0     0.888248     0.906019     0.500202  Biso 1.000000     O
    O   1.0     0.525436     0.430734     0.671268  Biso 1.000000     O
    O   1.0     0.394472     0.865375     0.626998  Biso 1.000000     O
    O   1.0     0.896675     0.366467     0.625990  Biso 1.000000     O
    O   1.0     0.000000     0.931332     0.672145  Biso 1.000000     O
    O   1.0     0.354693     0.068870     0.999823  Biso 1.000000     O
    O   1.0     0.378896     0.616807     0.000000  Biso 1.000000     O
    O   1.0     0.880824     0.115386     0.000000  Biso 1.000000     O
    O   1.0     0.853272     0.568936     0.000000  Biso 1.000000     O
    O   1.0     0.097413     0.056813     0.950153  Biso 1.000000     O
    O   1.0     0.108008     0.592972     0.999962  Biso 1.000000     O
    O   1.0     0.609124     0.093547     0.000000  Biso 1.000000     O
    O   1.0     0.597718     0.556439     0.952593  Biso 1.000000     O
    O   1.0     0.100601     0.135282     0.126908  Biso 1.000000     O
    O   1.0    -0.019047     0.569837     0.175856  Biso 1.000000     O
    O   1.0     0.476954     0.069503     0.174080  Biso 1.000000     O
    O   1.0     0.594449     0.635522     0.128856  Biso 1.000000     O
    O   1.0     0.380903     0.117064     0.473444  Biso 1.000000     O
    O   1.0     0.357463     0.569146     0.504538  Biso 1.000000     O
    O   1.0     0.855271     0.069190     0.499910  Biso 1.000000     O
    O   1.0     0.883366     0.618101     0.476434  Biso 1.000000     O
    O   1.0     0.108658     0.096537     0.498316  Biso 1.000000     O
    O   1.0     0.099437     0.557790     0.550769  Biso 1.000000     O
    O   1.0     0.597618     0.058018     0.549200  Biso 1.000000     O
    O   1.0     0.610586     0.596931     0.500140  Biso 1.000000     O
    O   1.0    -0.023187     0.072209     0.324919  Biso 1.000000     O
    O   1.0     0.102784     0.636164     0.373054  Biso 1.000000     O
    O   1.0     0.600104     0.135038     0.370526  Biso 1.000000     O
    O   1.0     0.476640     0.569756     0.328601  Biso 1.000000     O
    O   1.0     0.145803     0.430683    -0.004430  Biso 1.000000     O
    O   1.0     0.119967     0.883025    -0.023307  Biso 1.000000     O
    O   1.0     0.620442     0.383103    -0.022126  Biso 1.000000     O
    O   1.0     0.645161     0.930778    -0.004135  Biso 1.000000     O
    O   1.0     0.401384     0.443331     0.047100  Biso 1.000000     O
    O   1.0     0.390677     0.906487    -0.000590  Biso 1.000000     O
    O   1.0     0.891186     0.406743    -0.000128  Biso 1.000000     O
    O   1.0     0.901221     0.942337     0.048216  Biso 1.000000     O
    O   1.0     0.405594     0.365082     0.870105  Biso 1.000000     O
    O   1.0     0.518480     0.930375     0.823858  Biso 1.000000     O
    O   1.0     0.000000     0.430431     0.823979  Biso 1.000000     O
    O   1.0     0.904040     0.864912     0.870466  Biso 1.000000     O
    F   1.0     0.244546     0.455038     0.676013  Biso 1.000000     F
    F   1.0     0.316879     0.000000     0.643594  Biso 1.000000     F
    F   1.0     0.816933     0.528029     0.643726  Biso 1.000000     F
    F   1.0     0.744220     0.958595     0.676163  Biso 1.000000     F
    F   1.0     0.177470    -0.027602     0.144159  Biso 1.000000     F
    F   1.0     0.260443     0.541613     0.175682  Biso 1.000000     F
    F   1.0     0.755451     0.038127     0.175881  Biso 1.000000     F
    F   1.0     0.677519     0.472340     0.148079  Biso 1.000000     F
    F   1.0     0.255493     0.041619     0.323653  Biso 1.000000     F
    F   1.0     0.183175     0.475100     0.356545  Biso 1.000000     F
    F   1.0     0.677599    -0.027852     0.356410  Biso 1.000000     F
    F   1.0     0.756204     0.548344     0.323963  Biso 1.000000     F
    F   1.0     0.322509     0.527830     0.852068  Biso 1.000000     F
    F   1.0     0.239254     0.958457     0.823939  Biso 1.000000     F
    F   1.0     0.739332     0.458484     0.824216  Biso 1.000000     F
    F   1.0     0.822490     0.000000     0.855894  Biso 1.000000     F
    P   1.0     0.525901     0.398341     0.554516  Biso 1.000000     P
    P   1.0     0.464942     0.876486     0.516734  Biso 1.000000     P
    P   1.0     0.965586     0.377169     0.515123  Biso 1.000000     P
    P   1.0     0.000000     0.898393     0.555836  Biso 1.000000     P
    P   1.0     0.031705     0.124399     0.016436  Biso 1.000000     P
    P   1.0    -0.024967     0.602463     0.059330  Biso 1.000000     P
    P   1.0     0.474417     0.102546     0.057532  Biso 1.000000     P
    P   1.0     0.530442     0.624714     0.016618  Biso 1.000000     P
    P   1.0    -0.026232     0.104449     0.441695  Biso 1.000000     P
    P   1.0     0.034596     0.625702     0.484259  Biso 1.000000     P
    P   1.0     0.532037     0.125262     0.481950  Biso 1.000000     P
    P   1.0     0.474982     0.603843     0.444440  Biso 1.000000     P
    P   1.0     0.468806     0.375332     0.982682  Biso 1.000000     P
    P   1.0     0.523850     0.897271     0.940265  Biso 1.000000     P
    P   1.0     0.000000     0.397332     0.940276  Biso 1.000000     P
    P   1.0     0.968571     0.874997     0.982745  Biso 1.000000     P
   Ga   1.0     0.263231     0.025371     0.485257  Biso 1.000000    Ga
   Ga   1.0     0.234682     0.476348     0.514823  Biso 1.000000    Ga
   Ga   1.0     0.733408    -0.023494     0.514181  Biso 1.000000    Ga
   Ga   1.0     0.765668     0.526734     0.485293  Biso 1.000000    Ga
   Ga   1.0     0.234030    -0.024033    -0.013551  Biso 1.000000    Ga
   Ga   1.0     0.265215     0.523968     0.011366  Biso 1.000000    Ga
   Ga   1.0     0.765127     0.023487     0.013384  Biso 1.000000    Ga
   Ga   1.0     0.734149     0.475816    -0.011442  Biso 1.000000    Ga
   Ga   1.0     0.386902     0.443736     0.767286  Biso 1.000000    Ga
   Ga   1.0     0.377986     0.943550     0.729988  Biso 1.000000    Ga
   Ga   1.0     0.877837     0.443666     0.730043  Biso 1.000000    Ga
   Ga   1.0     0.884041     0.944122     0.768712  Biso 1.000000    Ga
   Ga   1.0     0.116531     0.056975     0.230360  Biso 1.000000    Ga
   Ga   1.0     0.122052     0.558697     0.269447  Biso 1.000000    Ga
   Ga   1.0     0.616465     0.055868     0.268898  Biso 1.000000    Ga
   Ga   1.0     0.615076     0.557537     0.232027  Biso 1.000000    Ga
