#======================================================================

# CRYSTAL DATA

#----------------------------------------------------------------------

data_VESTA_phase_1


_pd_phase_name                         MOF
_cell_length_a                         19.80100
_cell_length_b                         22.40000
_cell_length_c                         12.93300
_cell_angle_alpha                      86.45400
_cell_angle_beta                       82.78500
_cell_angle_gamma                      81.19200
_symmetry_space_group_name_H-M         "P 1"
_symmetry_Int_Tables_number            1

loop_
_symmetry_equiv_pos_as_xyz
   "x, y, z"

loop_
   _atom_site_label
   _atom_site_occupancy
   _atom_site_fract_x
   _atom_site_fract_y
   _atom_site_fract_z
   _atom_site_adp_type
   _atom_site_B_iso_or_equiv
   _atom_site_type_symbol
    H   1.0     0.465914     0.137759     0.153943  Biso 1.000000     H
    H   1.0     0.465926     0.637763     0.153926  Biso 1.000000     H
    H   1.0     0.965895     0.137759     0.153943  Biso 1.000000     H
    H   1.0     0.965906     0.637763     0.153927  Biso 1.000000     H
    H   1.0     0.463495     0.028910     0.206557  Biso 1.000000     H
    H   1.0     0.463498     0.528916     0.206548  Biso 1.000000     H
    H   1.0     0.963474     0.028910     0.206557  Biso 1.000000     H
    H   1.0     0.963477     0.528916     0.206549  Biso 1.000000     H
    H   1.0     0.408515     0.465466     0.096531  Biso 1.000000     H
    H   1.0     0.408522     0.965459     0.096532  Biso 1.000000     H
    H   1.0     0.908494     0.465467     0.096532  Biso 1.000000     H
    H   1.0     0.908502     0.965460     0.096531  Biso 1.000000     H
    H   1.0     0.357175     0.013197     0.941451  Biso 1.000000     H
    H   1.0     0.357169     0.513206     0.941450  Biso 1.000000     H
    H   1.0     0.857155     0.013198     0.941450  Biso 1.000000     H
    H   1.0     0.857149     0.513207     0.941451  Biso 1.000000     H
    H   1.0     0.183265     0.156273     0.704240  Biso 1.000000     H
    H   1.0     0.183273     0.656282     0.704228  Biso 1.000000     H
    H   1.0     0.683245     0.156274     0.704240  Biso 1.000000     H
    H   1.0     0.683253     0.656282     0.704228  Biso 1.000000     H
    H   1.0     0.132648     0.163383     0.535351  Biso 1.000000     H
    H   1.0     0.132655     0.663394     0.535339  Biso 1.000000     H
    H   1.0     0.632628     0.163383     0.535350  Biso 1.000000     H
    H   1.0     0.632635     0.663394     0.535338  Biso 1.000000     H
    H   1.0     0.320880     0.180053     0.363468  Biso 1.000000     H
    H   1.0     0.320887     0.680062     0.363456  Biso 1.000000     H
    H   1.0     0.820860     0.180053     0.363469  Biso 1.000000     H
    H   1.0     0.820868     0.680062     0.363456  Biso 1.000000     H
    H   1.0     0.378997     0.178173     0.523121  Biso 1.000000     H
    H   1.0     0.379005     0.678181     0.523108  Biso 1.000000     H
    H   1.0     0.878978     0.178173     0.523121  Biso 1.000000     H
    H   1.0     0.878986     0.678181     0.523109  Biso 1.000000     H
    H   1.0     0.428148     0.041414     0.678852  Biso 1.000000     H
    H   1.0     0.428155     0.541411     0.678853  Biso 1.000000     H
    H   1.0     0.928128     0.041414     0.678853  Biso 1.000000     H
    H   1.0     0.928135     0.541411     0.678857  Biso 1.000000     H
    H   1.0     0.418125     0.434867     0.638489  Biso 1.000000     H
    H   1.0     0.418122     0.934872     0.638475  Biso 1.000000     H
    H   1.0     0.918106     0.434867     0.638494  Biso 1.000000     H
    H   1.0     0.918102     0.934873     0.638475  Biso 1.000000     H
    H   1.0     0.222125     0.446591     0.798510  Biso 1.000000     H
    H   1.0     0.222129     0.946583     0.798514  Biso 1.000000     H
    H   1.0     0.722104     0.446591     0.798509  Biso 1.000000     H
    H   1.0     0.722109     0.946584     0.798513  Biso 1.000000     H
    H   1.0     0.224153     0.053790     0.847303  Biso 1.000000     H
    H   1.0     0.224153     0.553801     0.847285  Biso 1.000000     H
    H   1.0     0.724132     0.053790     0.847301  Biso 1.000000     H
    H   1.0     0.724132     0.553801     0.847283  Biso 1.000000     H
    H   1.0     0.034047     0.362260     0.846079  Biso 1.000000     H
    H   1.0     0.034057     0.862265     0.846065  Biso 1.000000     H
    H   1.0     0.534026     0.362261     0.846080  Biso 1.000000     H
    H   1.0     0.534037     0.862265     0.846065  Biso 1.000000     H
    H   1.0     0.036477     0.471107     0.793456  Biso 1.000000     H
    H   1.0     0.036478     0.971114     0.793450  Biso 1.000000     H
    H   1.0     0.536455     0.471108     0.793458  Biso 1.000000     H
    H   1.0     0.536458     0.971114     0.793450  Biso 1.000000     H
    H   1.0     0.091450     0.034564     0.903475  Biso 1.000000     H
    H   1.0     0.091457     0.534557     0.903476  Biso 1.000000     H
    H   1.0     0.591430     0.034564     0.903475  Biso 1.000000     H
    H   1.0     0.591438     0.534557     0.903475  Biso 1.000000     H
    H   1.0     0.142802     0.486817     0.058557  Biso 1.000000     H
    H   1.0     0.142796     0.986826     0.058557  Biso 1.000000     H
    H   1.0     0.642783     0.486817     0.058556  Biso 1.000000     H
    H   1.0     0.642777     0.986826     0.058557  Biso 1.000000     H
    H   1.0     0.316697     0.343741     0.295778  Biso 1.000000     H
    H   1.0     0.316706     0.843748     0.295766  Biso 1.000000     H
    H   1.0     0.816678     0.343741     0.295778  Biso 1.000000     H
    H   1.0     0.816686     0.843748     0.295766  Biso 1.000000     H
    H   1.0     0.367316     0.336631     0.464667  Biso 1.000000     H
    H   1.0     0.367324     0.836639     0.464655  Biso 1.000000     H
    H   1.0     0.867297     0.336630     0.464666  Biso 1.000000     H
    H   1.0     0.867305     0.836639     0.464654  Biso 1.000000     H
    H   1.0     0.179084     0.319964     0.636551  Biso 1.000000     H
    H   1.0     0.179091     0.819975     0.636539  Biso 1.000000     H
    H   1.0     0.679065     0.319965     0.636551  Biso 1.000000     H
    H   1.0     0.679072     0.819975     0.636539  Biso 1.000000     H
    H   1.0     0.120965     0.321844     0.476900  Biso 1.000000     H
    H   1.0     0.120973     0.821855     0.476888  Biso 1.000000     H
    H   1.0     0.620946     0.321845     0.476900  Biso 1.000000     H
    H   1.0     0.620953     0.821854     0.476888  Biso 1.000000     H
    H   1.0     0.071816     0.458613     0.321153  Biso 1.000000     H
    H   1.0     0.071823     0.958611     0.321156  Biso 1.000000     H
    H   1.0     0.571795     0.458614     0.321151  Biso 1.000000     H
    H   1.0     0.571802     0.958612     0.321155  Biso 1.000000     H
    H   1.0     0.081850     0.065152     0.361533  Biso 1.000000     H
    H   1.0     0.081847     0.565158     0.361516  Biso 1.000000     H
    H   1.0     0.581830     0.065153     0.361532  Biso 1.000000     H
    H   1.0     0.581827     0.565158     0.361515  Biso 1.000000     H
    H   1.0     0.277843     0.053439     0.201495  Biso 1.000000     H
    H   1.0     0.277847     0.553432     0.201496  Biso 1.000000     H
    H   1.0     0.777823     0.053439     0.201494  Biso 1.000000     H
    H   1.0     0.777828     0.553431     0.201499  Biso 1.000000     H
    H   1.0     0.275819     0.446222     0.152723  Biso 1.000000     H
    H   1.0     0.275819     0.946233     0.152707  Biso 1.000000     H
    H   1.0     0.775799     0.446222     0.152725  Biso 1.000000     H
    H   1.0     0.775798     0.946233     0.152707  Biso 1.000000     H
    C   1.0     0.443863     0.108689     0.106657  Biso 1.000000     C
    C   1.0     0.443872     0.608694     0.106643  Biso 1.000000     C
    C   1.0     0.943845     0.108689     0.106656  Biso 1.000000     C
    C   1.0     0.943852     0.608694     0.106644  Biso 1.000000     C
    C   1.0     0.441912     0.047830     0.136174  Biso 1.000000     C
    C   1.0     0.441914     0.547836     0.136166  Biso 1.000000     C
    C   1.0     0.941892     0.047830     0.136174  Biso 1.000000     C
    C   1.0     0.941894     0.547836     0.136167  Biso 1.000000     C
    C   1.0     0.411198     0.013042     0.075390  Biso 1.000000     C
    C   1.0     0.411196     0.513050     0.075386  Biso 1.000000     C
    C   1.0     0.911178     0.013042     0.075389  Biso 1.000000     C
    C   1.0     0.911176     0.513050     0.075386  Biso 1.000000     C
    C   1.0     0.383087     0.039905     0.986953  Biso 1.000000     C
    C   1.0     0.383084     0.539912     0.986949  Biso 1.000000     C
    C   1.0     0.883067     0.039905     0.986952  Biso 1.000000     C
    C   1.0     0.883065     0.539913     0.986949  Biso 1.000000     C
    C   1.0     0.388078     0.100744     0.961368  Biso 1.000000     C
    C   1.0     0.388084     0.600750     0.961357  Biso 1.000000     C
    C   1.0     0.888060     0.100744     0.961366  Biso 1.000000     C
    C   1.0     0.888062     0.600751     0.961359  Biso 1.000000     C
    C   1.0     0.361980     0.134697     0.870066  Biso 1.000000     C
    C   1.0     0.361987     0.634703     0.870055  Biso 1.000000     C
    C   1.0     0.861961     0.134698     0.870065  Biso 1.000000     C
    C   1.0     0.861967     0.634703     0.870054  Biso 1.000000     C
    C   1.0     0.318263     0.165601     0.723780  Biso 1.000000     C
    C   1.0     0.318271     0.665606     0.723768  Biso 1.000000     C
    C   1.0     0.818243     0.165601     0.723781  Biso 1.000000     C
    C   1.0     0.818250     0.665608     0.723769  Biso 1.000000     C
    C   1.0     0.285848     0.166423     0.627242  Biso 1.000000     C
    C   1.0     0.285856     0.666430     0.627230  Biso 1.000000     C
    C   1.0     0.785828     0.166423     0.627243  Biso 1.000000     C
    C   1.0     0.785836     0.666430     0.627230  Biso 1.000000     C
    C   1.0     0.215887     0.161378     0.630728  Biso 1.000000     C
    C   1.0     0.215895     0.661387     0.630716  Biso 1.000000     C
    C   1.0     0.715866     0.161379     0.630728  Biso 1.000000     C
    C   1.0     0.715875     0.661387     0.630716  Biso 1.000000     C
    C   1.0     0.187298     0.165064     0.537086  Biso 1.000000     C
    C   1.0     0.187306     0.665073     0.537073  Biso 1.000000     C
    C   1.0     0.687278     0.165064     0.537085  Biso 1.000000     C
    C   1.0     0.687287     0.665071     0.537073  Biso 1.000000     C
    C   1.0     0.292009     0.175793     0.440429  Biso 1.000000     C
    C   1.0     0.292017     0.675801     0.440416  Biso 1.000000     C
    C   1.0     0.791989     0.175793     0.440429  Biso 1.000000     C
    C   1.0     0.791998     0.675799     0.440416  Biso 1.000000     C
    C   1.0     0.324503     0.173941     0.530278  Biso 1.000000     C
    C   1.0     0.324511     0.673950     0.530265  Biso 1.000000     C
    C   1.0     0.824484     0.173942     0.530279  Biso 1.000000     C
    C   1.0     0.824492     0.673950     0.530266  Biso 1.000000     C
    C   1.0     0.326152     0.054605     0.765084  Biso 1.000000     C
    C   1.0     0.326156     0.554610     0.765075  Biso 1.000000     C
    C   1.0     0.826131     0.054606     0.765084  Biso 1.000000     C
    C   1.0     0.826135     0.554611     0.765078  Biso 1.000000     C
    C   1.0     0.381695     0.021733     0.705840  Biso 1.000000     C
    C   1.0     0.381700     0.521733     0.705842  Biso 1.000000     C
    C   1.0     0.881675     0.021734     0.705841  Biso 1.000000     C
    C   1.0     0.881680     0.521734     0.705844  Biso 1.000000     C
    C   1.0     0.376045     0.462916     0.683292  Biso 1.000000     C
    C   1.0     0.376044     0.962919     0.683287  Biso 1.000000     C
    C   1.0     0.876026     0.462917     0.683296  Biso 1.000000     C
    C   1.0     0.876024     0.962919     0.683286  Biso 1.000000     C
    C   1.0     0.266290     0.469675     0.772494  Biso 1.000000     C
    C   1.0     0.266292     0.969669     0.772500  Biso 1.000000     C
    C   1.0     0.766270     0.469675     0.772495  Biso 1.000000     C
    C   1.0     0.766272     0.969670     0.772498  Biso 1.000000     C
    C   1.0     0.266995     0.029157     0.798602  Biso 1.000000     C
    C   1.0     0.266996     0.529165     0.798592  Biso 1.000000     C
    C   1.0     0.766974     0.029158     0.798601  Biso 1.000000     C
    C   1.0     0.766975     0.529165     0.798591  Biso 1.000000     C
    C   1.0     0.056103     0.391329     0.893360  Biso 1.000000     C
    C   1.0     0.056107     0.891335     0.893351  Biso 1.000000     C
    C   1.0     0.556082     0.391329     0.893362  Biso 1.000000     C
    C   1.0     0.556088     0.891334     0.893351  Biso 1.000000     C
    C   1.0     0.058058     0.452187     0.863840  Biso 1.000000     C
    C   1.0     0.058061     0.952194     0.863832  Biso 1.000000     C
    C   1.0     0.558038     0.452187     0.863840  Biso 1.000000     C
    C   1.0     0.558041     0.952194     0.863832  Biso 1.000000     C
    C   1.0     0.088776     0.486973     0.924620  Biso 1.000000     C
    C   1.0     0.088774     0.986981     0.924617  Biso 1.000000     C
    C   1.0     0.588756     0.486974     0.924620  Biso 1.000000     C
    C   1.0     0.588754     0.986981     0.924617  Biso 1.000000     C
    C   1.0     0.116885     0.460111     0.013059  Biso 1.000000     C
    C   1.0     0.116885     0.960119     0.013055  Biso 1.000000     C
    C   1.0     0.616866     0.460112     0.013058  Biso 1.000000     C
    C   1.0     0.616865     0.960119     0.013054  Biso 1.000000     C
    C   1.0     0.111891     0.399273     0.038647  Biso 1.000000     C
    C   1.0     0.111892     0.899280     0.038641  Biso 1.000000     C
    C   1.0     0.611871     0.399273     0.038647  Biso 1.000000     C
    C   1.0     0.611873     0.899280     0.038640  Biso 1.000000     C
    C   1.0     0.137982     0.365321     0.129955  Biso 1.000000     C
    C   1.0     0.137990     0.865326     0.129942  Biso 1.000000     C
    C   1.0     0.637965     0.365321     0.129953  Biso 1.000000     C
    C   1.0     0.637971     0.865327     0.129942  Biso 1.000000     C
    C   1.0     0.181700     0.334416     0.276239  Biso 1.000000     C
    C   1.0     0.181707     0.834423     0.276227  Biso 1.000000     C
    C   1.0     0.681680     0.334417     0.276239  Biso 1.000000     C
    C   1.0     0.681688     0.834422     0.276227  Biso 1.000000     C
    C   1.0     0.214115     0.333594     0.372777  Biso 1.000000     C
    C   1.0     0.214123     0.833601     0.372764  Biso 1.000000     C
    C   1.0     0.714096     0.333594     0.372777  Biso 1.000000     C
    C   1.0     0.714103     0.833601     0.372765  Biso 1.000000     C
    C   1.0     0.284076     0.338637     0.369290  Biso 1.000000     C
    C   1.0     0.284085     0.838644     0.369278  Biso 1.000000     C
    C   1.0     0.784057     0.338637     0.369290  Biso 1.000000     C
    C   1.0     0.784065     0.838645     0.369278  Biso 1.000000     C
    C   1.0     0.312665     0.334953     0.462933  Biso 1.000000     C
    C   1.0     0.312673     0.834959     0.462920  Biso 1.000000     C
    C   1.0     0.812646     0.334952     0.462932  Biso 1.000000     C
    C   1.0     0.812654     0.834960     0.462920  Biso 1.000000     C
    C   1.0     0.207954     0.324226     0.559591  Biso 1.000000     C
    C   1.0     0.207962     0.824234     0.559578  Biso 1.000000     C
    C   1.0     0.707935     0.324226     0.559590  Biso 1.000000     C
    C   1.0     0.707942     0.824234     0.559579  Biso 1.000000     C
    C   1.0     0.175459     0.326075     0.469742  Biso 1.000000     C
    C   1.0     0.175467     0.826085     0.469729  Biso 1.000000     C
    C   1.0     0.675440     0.326076     0.469741  Biso 1.000000     C
    C   1.0     0.675448     0.826084     0.469730  Biso 1.000000     C
    C   1.0     0.173815     0.445413     0.234930  Biso 1.000000     C
    C   1.0     0.173819     0.945418     0.234924  Biso 1.000000     C
    C   1.0     0.673795     0.445414     0.234931  Biso 1.000000     C
    C   1.0     0.673798     0.945419     0.234924  Biso 1.000000     C
    C   1.0     0.118271     0.478290     0.294166  Biso 1.000000     C
    C   1.0     0.118276     0.978291     0.294167  Biso 1.000000     C
    C   1.0     0.618250     0.478291     0.294164  Biso 1.000000     C
    C   1.0     0.618255     0.978291     0.294167  Biso 1.000000     C
    C   1.0     0.123927     0.037105     0.316721  Biso 1.000000     C
    C   1.0     0.123926     0.537108     0.316712  Biso 1.000000     C
    C   1.0     0.623907     0.037106     0.316720  Biso 1.000000     C
    C   1.0     0.623906     0.537108     0.316712  Biso 1.000000     C
    C   1.0     0.233680     0.030353     0.227509  Biso 1.000000     C
    C   1.0     0.233682     0.530349     0.227511  Biso 1.000000     C
    C   1.0     0.733660     0.030354     0.227509  Biso 1.000000     C
    C   1.0     0.733662     0.530349     0.227513  Biso 1.000000     C
    C   1.0     0.232976     0.470858     0.201416  Biso 1.000000     C
    C   1.0     0.232977     0.970866     0.201406  Biso 1.000000     C
    C   1.0     0.732956     0.470858     0.201418  Biso 1.000000     C
    C   1.0     0.732956     0.970866     0.201407  Biso 1.000000     C
    N   1.0     0.418250     0.134487     0.020892  Biso 1.000000     N
    N   1.0     0.418261     0.634492     0.020877  Biso 1.000000     N
    N   1.0     0.918231     0.134487     0.020892  Biso 1.000000     N
    N   1.0     0.918243     0.634491     0.020876  Biso 1.000000     N
    N   1.0     0.365739     0.193111     0.852081  Biso 1.000000     N
    N   1.0     0.365750     0.693116     0.852067  Biso 1.000000     N
    N   1.0     0.865722     0.193111     0.852078  Biso 1.000000     N
    N   1.0     0.865732     0.693115     0.852066  Biso 1.000000     N
    N   1.0     0.339295     0.212379     0.761320  Biso 1.000000     N
    N   1.0     0.339305     0.712383     0.761306  Biso 1.000000     N
    N   1.0     0.839276     0.212379     0.761318  Biso 1.000000     N
    N   1.0     0.839288     0.712383     0.761304  Biso 1.000000     N
    N   1.0     0.331582     0.115386     0.789953  Biso 1.000000     N
    N   1.0     0.331589     0.615391     0.789941  Biso 1.000000     N
    N   1.0     0.831561     0.115387     0.789954  Biso 1.000000     N
    N   1.0     0.831569     0.615392     0.789941  Biso 1.000000     N
    N   1.0     0.224520     0.171998     0.443465  Biso 1.000000     N
    N   1.0     0.224527     0.672008     0.443453  Biso 1.000000     N
    N   1.0     0.724500     0.171997     0.443464  Biso 1.000000     N
    N   1.0     0.724507     0.672011     0.443453  Biso 1.000000     N
    N   1.0     0.319483     0.437094     0.716029  Biso 1.000000     N
    N   1.0     0.319483     0.937095     0.716020  Biso 1.000000     N
    N   1.0     0.819463     0.437095     0.716028  Biso 1.000000     N
    N   1.0     0.819464     0.937095     0.716023  Biso 1.000000     N
    N   1.0     0.026449     0.222981     0.898359  Biso 1.000000     N
    N   1.0     0.026459     0.722988     0.898346  Biso 1.000000     N
    N   1.0     0.526438     0.222983     0.898352  Biso 1.000000     N
    N   1.0     0.526449     0.722990     0.898338  Biso 1.000000     N
    N   1.0     0.046846     0.177830     0.848721  Biso 1.000000     N
    N   1.0     0.046857     0.677835     0.848710  Biso 1.000000     N
    N   1.0     0.546830     0.177829     0.848717  Biso 1.000000     N
    N   1.0     0.546842     0.677835     0.848707  Biso 1.000000     N
    N   1.0     0.066136     0.134531     0.799456  Biso 1.000000     N
    N   1.0     0.066149     0.634536     0.799448  Biso 1.000000     N
    N   1.0     0.566114     0.134529     0.799455  Biso 1.000000     N
    N   1.0     0.566127     0.634533     0.799448  Biso 1.000000     N
    N   1.0     0.376055     0.333429     0.881881  Biso 1.000000     N
    N   1.0     0.376065     0.833434     0.881871  Biso 1.000000     N
    N   1.0     0.876036     0.333427     0.881882  Biso 1.000000     N
    N   1.0     0.876046     0.833432     0.881872  Biso 1.000000     N
    N   1.0     0.343620     0.373843     0.934918  Biso 1.000000     N
    N   1.0     0.343628     0.873846     0.934912  Biso 1.000000     N
    N   1.0     0.843600     0.373841     0.934920  Biso 1.000000     N
    N   1.0     0.843608     0.873844     0.934912  Biso 1.000000     N
    N   1.0     0.312521     0.413922     0.984035  Biso 1.000000     N
    N   1.0     0.312526     0.913923     0.984032  Biso 1.000000     N
    N   1.0     0.812500     0.413920     0.984036  Biso 1.000000     N
    N   1.0     0.812506     0.913922     0.984032  Biso 1.000000     N
    N   1.0     0.431566     0.315535     0.612035  Biso 1.000000     N
    N   1.0     0.431574     0.815550     0.612019  Biso 1.000000     N
    N   1.0     0.931549     0.315538     0.612036  Biso 1.000000     N
    N   1.0     0.931557     0.815553     0.612020  Biso 1.000000     N
    N   1.0     0.483751     0.330226     0.636860  Biso 1.000000     N
    N   1.0     0.483759     0.830240     0.636846  Biso 1.000000     N
    N   1.0     0.983736     0.330226     0.636860  Biso 1.000000     N
    N   1.0     0.983744     0.830241     0.636846  Biso 1.000000     N
    N   1.0     0.035802     0.344853     0.656038  Biso 1.000000     N
    N   1.0     0.035811     0.844867     0.656024  Biso 1.000000     N
    N   1.0     0.535797     0.344855     0.656040  Biso 1.000000     N
    N   1.0     0.535804     0.844871     0.656027  Biso 1.000000     N
    N   1.0     0.277792     0.169834     0.194766  Biso 1.000000     N
    N   1.0     0.277801     0.669837     0.194755  Biso 1.000000     N
    N   1.0     0.777774     0.169834     0.194765  Biso 1.000000     N
    N   1.0     0.777784     0.669838     0.194754  Biso 1.000000     N
    N   1.0     0.294879     0.213596     0.146401  Biso 1.000000     N
    N   1.0     0.294890     0.713599     0.146392  Biso 1.000000     N
    N   1.0     0.794863     0.213596     0.146400  Biso 1.000000     N
    N   1.0     0.794873     0.713599     0.146389  Biso 1.000000     N
    N   1.0     0.312260     0.257318     0.099217  Biso 1.000000     N
    N   1.0     0.312273     0.757320     0.099206  Biso 1.000000     N
    N   1.0     0.812246     0.257316     0.099214  Biso 1.000000     N
    N   1.0     0.812258     0.757319     0.099204  Biso 1.000000     N
    N   1.0     0.081707     0.365533     0.979133  Biso 1.000000     N
    N   1.0     0.081720     0.865537     0.979116  Biso 1.000000     N
    N   1.0     0.581690     0.365533     0.979131  Biso 1.000000     N
    N   1.0     0.581700     0.865537     0.979116  Biso 1.000000     N
    N   1.0     0.134221     0.306908     0.147940  Biso 1.000000     N
    N   1.0     0.134230     0.806912     0.147927  Biso 1.000000     N
    N   1.0     0.634202     0.306908     0.147939  Biso 1.000000     N
    N   1.0     0.634213     0.806913     0.147926  Biso 1.000000     N
    N   1.0     0.160662     0.287640     0.238703  Biso 1.000000     N
    N   1.0     0.160675     0.787645     0.238689  Biso 1.000000     N
    N   1.0     0.660646     0.287640     0.238701  Biso 1.000000     N
    N   1.0     0.660656     0.787645     0.238688  Biso 1.000000     N
    N   1.0     0.168381     0.384632     0.210068  Biso 1.000000     N
    N   1.0     0.168388     0.884637     0.210055  Biso 1.000000     N
    N   1.0     0.668361     0.384633     0.210067  Biso 1.000000     N
    N   1.0     0.668368     0.884638     0.210056  Biso 1.000000     N
    N   1.0     0.275445     0.328015     0.556553  Biso 1.000000     N
    N   1.0     0.275451     0.828028     0.556541  Biso 1.000000     N
    N   1.0     0.775425     0.328016     0.556553  Biso 1.000000     N
    N   1.0     0.775432     0.828027     0.556541  Biso 1.000000     N
    N   1.0     0.180489     0.062929     0.283987  Biso 1.000000     N
    N   1.0     0.180490     0.562928     0.283980  Biso 1.000000     N
    N   1.0     0.680469     0.062929     0.283987  Biso 1.000000     N
    N   1.0     0.680469     0.562929     0.283979  Biso 1.000000     N
    N   1.0     0.473502     0.277035     0.101668  Biso 1.000000     N
    N   1.0     0.473512     0.777042     0.101655  Biso 1.000000     N
    N   1.0     0.973492     0.277037     0.101661  Biso 1.000000     N
    N   1.0     0.973502     0.777044     0.101648  Biso 1.000000     N
    N   1.0     0.453110     0.322190     0.151302  Biso 1.000000     N
    N   1.0     0.453122     0.822195     0.151292  Biso 1.000000     N
    N   1.0     0.953095     0.322190     0.151298  Biso 1.000000     N
    N   1.0     0.953106     0.822195     0.151288  Biso 1.000000     N
    N   1.0     0.433826     0.365491     0.200562  Biso 1.000000     N
    N   1.0     0.433840     0.865495     0.200555  Biso 1.000000     N
    N   1.0     0.933805     0.365489     0.200560  Biso 1.000000     N
    N   1.0     0.933818     0.865493     0.200555  Biso 1.000000     N
    N   1.0     0.123905     0.166592     0.118136  Biso 1.000000     N
    N   1.0     0.123914     0.666597     0.118126  Biso 1.000000     N
    N   1.0     0.623886     0.166590     0.118137  Biso 1.000000     N
    N   1.0     0.623896     0.666595     0.118127  Biso 1.000000     N
    N   1.0     0.156342     0.126180     0.065096  Biso 1.000000     N
    N   1.0     0.156351     0.626183     0.065089  Biso 1.000000     N
    N   1.0     0.656323     0.126178     0.065096  Biso 1.000000     N
    N   1.0     0.656332     0.626181     0.065089  Biso 1.000000     N
    N   1.0     0.187445     0.086102     0.015977  Biso 1.000000     N
    N   1.0     0.187450     0.586103     0.015973  Biso 1.000000     N
    N   1.0     0.687424     0.086100     0.015977  Biso 1.000000     N
    N   1.0     0.687431     0.586101     0.015973  Biso 1.000000     N
    N   1.0     0.068395     0.184469     0.387988  Biso 1.000000     N
    N   1.0     0.068402     0.684483     0.387972  Biso 1.000000     N
    N   1.0     0.568378     0.184472     0.387988  Biso 1.000000     N
    N   1.0     0.568386     0.684486     0.387973  Biso 1.000000     N
    N   1.0     0.016206     0.169786     0.363159  Biso 1.000000     N
    N   1.0     0.016214     0.669800     0.363143  Biso 1.000000     N
    N   1.0     0.516191     0.169785     0.363160  Biso 1.000000     N
    N   1.0     0.516199     0.669801     0.363143  Biso 1.000000     N
    N   1.0     0.464144     0.155161     0.343974  Biso 1.000000     N
    N   1.0     0.464151     0.655176     0.343962  Biso 1.000000     N
    N   1.0     0.964141     0.155160     0.343977  Biso 1.000000     N
    N   1.0     0.964145     0.655180     0.343963  Biso 1.000000     N
    N   1.0     0.222169     0.330184     0.805251  Biso 1.000000     N
    N   1.0     0.222178     0.830188     0.805241  Biso 1.000000     N
    N   1.0     0.722151     0.330185     0.805250  Biso 1.000000     N
    N   1.0     0.722160     0.830188     0.805239  Biso 1.000000     N
    N   1.0     0.205079     0.286422     0.853616  Biso 1.000000     N
    N   1.0     0.205089     0.786426     0.853606  Biso 1.000000     N
    N   1.0     0.705062     0.286423     0.853614  Biso 1.000000     N
    N   1.0     0.705073     0.786426     0.853605  Biso 1.000000     N
    N   1.0     0.187693     0.242703     0.900801  Biso 1.000000     N
    N   1.0     0.187704     0.742706     0.900791  Biso 1.000000     N
    N   1.0     0.687678     0.242702     0.900797  Biso 1.000000     N
    N   1.0     0.687690     0.742705     0.900789  Biso 1.000000     N
   Cd   1.0     0.411943     0.245082     0.977716  Biso 1.000000    Cd
   Cd   1.0     0.411953     0.745086     0.977703  Biso 1.000000    Cd
   Cd   1.0     0.911931     0.245080     0.977713  Biso 1.000000    Cd
   Cd   1.0     0.911942     0.745085     0.977701  Biso 1.000000    Cd
   Cd   1.0     0.331722     0.324652     0.715433  Biso 1.000000    Cd
   Cd   1.0     0.331731     0.824656     0.715420  Biso 1.000000    Cd
   Cd   1.0     0.831705     0.324652     0.715432  Biso 1.000000    Cd
   Cd   1.0     0.831714     0.824657     0.715419  Biso 1.000000    Cd
   Cd   1.0     0.088010     0.254939     0.022307  Biso 1.000000    Cd
   Cd   1.0     0.088020     0.754944     0.022294  Biso 1.000000    Cd
   Cd   1.0     0.587998     0.254938     0.022304  Biso 1.000000    Cd
   Cd   1.0     0.588008     0.754942     0.022291  Biso 1.000000    Cd
   Cd   1.0     0.168238     0.175367     0.284588  Biso 1.000000    Cd
   Cd   1.0     0.168247     0.675371     0.284575  Biso 1.000000    Cd
   Cd   1.0     0.668221     0.175367     0.284587  Biso 1.000000    Cd
   Cd   1.0     0.668230     0.675372     0.284574  Biso 1.000000    Cd
