#======================================================================

# CRYSTAL DATA

#----------------------------------------------------------------------

data_VESTA_phase_1


_pd_phase_name                         MOF
_cell_length_a                         16.46100
_cell_length_b                         15.12700
_cell_length_c                         22.29100
_cell_angle_alpha                      90.00800
_cell_angle_beta                       95.73400
_cell_angle_gamma                      90.00900
_symmetry_space_group_name_H-M         "P 1"
_symmetry_Int_Tables_number            1

loop_
_symmetry_equiv_pos_as_xyz
   "x, y, z"

loop_
   _atom_site_label
   _atom_site_occupancy
   _atom_site_fract_x
   _atom_site_fract_y
   _atom_site_fract_z
   _atom_site_adp_type
   _atom_site_B_iso_or_equiv
   _atom_site_type_symbol
    H   1.0     0.174732     0.872482     0.245721  Biso 1.000000     H
    H   1.0     0.674726     0.872491     0.245727  Biso 1.000000     H
    H   1.0     0.379812     0.881963     0.423715  Biso 1.000000     H
    H   1.0     0.879809     0.881966     0.423720  Biso 1.000000     H
    H   1.0     0.359184     0.013569     0.357071  Biso 1.000000     H
    H   1.0     0.859184     0.013573     0.357076  Biso 1.000000     H
    H   1.0     0.450074     0.580828     0.469175  Biso 1.000000     H
    H   1.0     0.950072     0.580830     0.469175  Biso 1.000000     H
    H   1.0     0.228861     0.647598     0.545621  Biso 1.000000     H
    H   1.0     0.728858     0.647595     0.545622  Biso 1.000000     H
    H   1.0     0.195629     0.757877     0.463967  Biso 1.000000     H
    H   1.0     0.695627     0.757880     0.463972  Biso 1.000000     H
    H   1.0     0.194546     0.358523     0.132671  Biso 1.000000     H
    H   1.0     0.694527     0.358518     0.132677  Biso 1.000000     H
    H   1.0     0.162140     0.520660     0.123029  Biso 1.000000     H
    H   1.0     0.662119     0.520654     0.123034  Biso 1.000000     H
    H   1.0     0.207998     0.620546     0.210259  Biso 1.000000     H
    H   1.0     0.707985     0.620545     0.210260  Biso 1.000000     H
    H   1.0     0.285498     0.556687     0.301072  Biso 1.000000     H
    H   1.0     0.785490     0.556690     0.301072  Biso 1.000000     H
    H   1.0     0.373182     0.497267     0.362862  Biso 1.000000     H
    H   1.0     0.873174     0.497270     0.362864  Biso 1.000000     H
    H   1.0     0.451181     0.414797     0.445825  Biso 1.000000     H
    H   1.0     0.951182     0.414800     0.445823  Biso 1.000000     H
    H   1.0     0.448453     0.248459     0.443891  Biso 1.000000     H
    H   1.0     0.948454     0.248462     0.443889  Biso 1.000000     H
    H   1.0     0.364147     0.172873     0.357625  Biso 1.000000     H
    H   1.0     0.864141     0.172875     0.357627  Biso 1.000000     H
    H   1.0     0.075320     0.372547     0.254315  Biso 1.000000     H
    H   1.0     0.575318     0.372541     0.254312  Biso 1.000000     H
    H   1.0     0.370051     0.381686     0.076430  Biso 1.000000     H
    H   1.0     0.870038     0.381679     0.076436  Biso 1.000000     H
    H   1.0     0.390572     0.513285     0.143089  Biso 1.000000     H
    H   1.0     0.890556     0.513280     0.143094  Biso 1.000000     H
    H   1.0     0.299933     0.080695     0.030830  Biso 1.000000     H
    H   1.0     0.799936     0.080691     0.030829  Biso 1.000000     H
    H   1.0     0.021149     0.147571     0.954420  Biso 1.000000     H
    H   1.0     0.521123     0.147579     0.954407  Biso 1.000000     H
    H   1.0     0.054437     0.257786     0.036112  Biso 1.000000     H
    H   1.0     0.554422     0.257790     0.036101  Biso 1.000000     H
    H   1.0     0.055662     0.858637     0.367366  Biso 1.000000     H
    H   1.0     0.555644     0.858618     0.367377  Biso 1.000000     H
    H   1.0     0.087359     0.020952     0.377220  Biso 1.000000     H
    H   1.0     0.587354     0.020929     0.377238  Biso 1.000000     H
    H   1.0     0.040949     0.120875     0.290155  Biso 1.000000     H
    H   1.0     0.540960     0.120862     0.290173  Biso 1.000000     H
    H   1.0     0.463723     0.056875     0.199288  Biso 1.000000     H
    H   1.0     0.963700     0.056876     0.199275  Biso 1.000000     H
    H   1.0     0.376587     0.997085     0.137262  Biso 1.000000     H
    H   1.0     0.876591     0.997079     0.137244  Biso 1.000000     H
    H   1.0     0.298896     0.914436     0.054217  Biso 1.000000     H
    H   1.0     0.798903     0.914424     0.054202  Biso 1.000000     H
    H   1.0     0.302081     0.748098     0.056057  Biso 1.000000     H
    H   1.0     0.802066     0.748085     0.056058  Biso 1.000000     H
    H   1.0     0.386457     0.672715     0.142351  Biso 1.000000     H
    H   1.0     0.886428     0.672709     0.142362  Biso 1.000000     H
    H   1.0     0.325266     0.127508     0.754300  Biso 1.000000     H
    H   1.0     0.825261     0.127507     0.754299  Biso 1.000000     H
    H   1.0     0.120200     0.118019     0.576297  Biso 1.000000     H
    H   1.0     0.620197     0.118017     0.576295  Biso 1.000000     H
    H   1.0     0.140830     0.986411     0.642940  Biso 1.000000     H
    H   1.0     0.640826     0.986410     0.642939  Biso 1.000000     H
    H   1.0     0.049921     0.419149     0.530839  Biso 1.000000     H
    H   1.0     0.549916     0.419150     0.530838  Biso 1.000000     H
    H   1.0     0.271144     0.352395     0.454400  Biso 1.000000     H
    H   1.0     0.771138     0.352391     0.454398  Biso 1.000000     H
    H   1.0     0.304378     0.242119     0.536055  Biso 1.000000     H
    H   1.0     0.804370     0.242114     0.536053  Biso 1.000000     H
    H   1.0     0.305466     0.641478     0.867345  Biso 1.000000     H
    H   1.0     0.805455     0.641474     0.867343  Biso 1.000000     H
    H   1.0     0.337883     0.479344     0.876991  Biso 1.000000     H
    H   1.0     0.837864     0.479339     0.876991  Biso 1.000000     H
    H   1.0     0.292023     0.379449     0.789766  Biso 1.000000     H
    H   1.0     0.792003     0.379444     0.789766  Biso 1.000000     H
    H   1.0     0.214516     0.443298     0.698953  Biso 1.000000     H
    H   1.0     0.714502     0.443295     0.698951  Biso 1.000000     H
    H   1.0     0.126830     0.502713     0.637159  Biso 1.000000     H
    H   1.0     0.626840     0.502716     0.637144  Biso 1.000000     H
    H   1.0     0.048827     0.585178     0.554195  Biso 1.000000     H
    H   1.0     0.548844     0.585185     0.554179  Biso 1.000000     H
    H   1.0     0.051555     0.751517     0.556124  Biso 1.000000     H
    H   1.0     0.551562     0.751523     0.556117  Biso 1.000000     H
    H   1.0     0.135862     0.827109     0.642387  Biso 1.000000     H
    H   1.0     0.635857     0.827111     0.642387  Biso 1.000000     H
    H   1.0     0.424679     0.627448     0.745707  Biso 1.000000     H
    H   1.0     0.924668     0.627443     0.745705  Biso 1.000000     H
    H   1.0     0.129956     0.618307     0.923581  Biso 1.000000     H
    H   1.0     0.629942     0.618301     0.923591  Biso 1.000000     H
    H   1.0     0.109437     0.486708     0.856921  Biso 1.000000     H
    H   1.0     0.609423     0.486703     0.856930  Biso 1.000000     H
    H   1.0     0.200061     0.919293     0.969191  Biso 1.000000     H
    H   1.0     0.700075     0.919287     0.969187  Biso 1.000000     H
    H   1.0     0.478889     0.852410     0.045618  Biso 1.000000     H
    H   1.0     0.978854     0.852407     0.045605  Biso 1.000000     H
    H   1.0     0.445581     0.742201     0.963924  Biso 1.000000     H
    H   1.0     0.945562     0.742196     0.963910  Biso 1.000000     H
    H   1.0     0.444338     0.141355     0.632656  Biso 1.000000     H
    H   1.0     0.944331     0.141360     0.632653  Biso 1.000000     H
    H   1.0     0.412666     0.979035     0.622794  Biso 1.000000     H
    H   1.0     0.912654     0.979041     0.622790  Biso 1.000000     H
    H   1.0     0.459094     0.879109     0.709855  Biso 1.000000     H
    H   1.0     0.959077     0.879113     0.709851  Biso 1.000000     H
    H   1.0     0.036315     0.943113     0.800735  Biso 1.000000     H
    H   1.0     0.536321     0.943112     0.800738  Biso 1.000000     H
    H   1.0     0.123420     0.002916     0.862769  Biso 1.000000     H
    H   1.0     0.623411     0.002919     0.862778  Biso 1.000000     H
    H   1.0     0.201114     0.085573     0.945807  Biso 1.000000     H
    H   1.0     0.701103     0.085578     0.945816  Biso 1.000000     H
    H   1.0     0.197936     0.251912     0.943955  Biso 1.000000     H
    H   1.0     0.697935     0.251917     0.943956  Biso 1.000000     H
    H   1.0     0.113558     0.327285     0.857658  Biso 1.000000     H
    H   1.0     0.613564     0.327287     0.857654  Biso 1.000000     H
    C   1.0     0.251995     0.030646     0.256293  Biso 1.000000     C
    C   1.0     0.751993     0.030651     0.256296  Biso 1.000000     C
    C   1.0     0.265879     0.951557     0.296631  Biso 1.000000     C
    C   1.0     0.765875     0.951562     0.296636  Biso 1.000000     C
    C   1.0     0.219462     0.875023     0.285078  Biso 1.000000     C
    C   1.0     0.719458     0.875028     0.285083  Biso 1.000000     C
    C   1.0     0.227159     0.802034     0.323987  Biso 1.000000     C
    C   1.0     0.727154     0.802041     0.323993  Biso 1.000000     C
    C   1.0     0.286826     0.803558     0.374373  Biso 1.000000     C
    C   1.0     0.786824     0.803563     0.374377  Biso 1.000000     C
    C   1.0     0.334013     0.880474     0.384831  Biso 1.000000     C
    C   1.0     0.834009     0.880481     0.384836  Biso 1.000000     C
    C   1.0     0.322952     0.954033     0.347537  Biso 1.000000     C
    C   1.0     0.822950     0.954039     0.347541  Biso 1.000000     C
    C   1.0     0.167676     0.727231     0.311825  Biso 1.000000     C
    C   1.0     0.667673     0.727236     0.311827  Biso 1.000000     C
    C   1.0     0.303136     0.730832     0.419258  Biso 1.000000     C
    C   1.0     0.803132     0.730835     0.419261  Biso 1.000000     C
    C   1.0     0.375691     0.680534     0.421606  Biso 1.000000     C
    C   1.0     0.875689     0.680540     0.421608  Biso 1.000000     C
    C   1.0     0.433902     0.688546     0.374365  Biso 1.000000     C
    C   1.0     0.933899     0.688552     0.374367  Biso 1.000000     C
    C   1.0     0.393900     0.619096     0.468188  Biso 1.000000     C
    C   1.0     0.893895     0.619094     0.468186  Biso 1.000000     C
    C   1.0     0.340831     0.606166     0.512530  Biso 1.000000     C
    C   1.0     0.840831     0.606166     0.512531  Biso 1.000000     C
    C   1.0     0.269553     0.657326     0.510653  Biso 1.000000     C
    C   1.0     0.769549     0.657322     0.510653  Biso 1.000000     C
    C   1.0     0.251412     0.718805     0.464972  Biso 1.000000     C
    C   1.0     0.751410     0.718808     0.464977  Biso 1.000000     C
    C   1.0     0.358826     0.539987     0.562019  Biso 1.000000     C
    C   1.0     0.858821     0.539983     0.562017  Biso 1.000000     C
    C   1.0     0.214566     0.405170     0.168457  Biso 1.000000     C
    C   1.0     0.714550     0.405167     0.168462  Biso 1.000000     C
    C   1.0     0.197112     0.495097     0.163379  Biso 1.000000     C
    C   1.0     0.697095     0.495093     0.163383  Biso 1.000000     C
    C   1.0     0.222960     0.550364     0.211699  Biso 1.000000     C
    C   1.0     0.722946     0.550362     0.211701  Biso 1.000000     C
    C   1.0     0.266544     0.514502     0.262731  Biso 1.000000     C
    C   1.0     0.766534     0.514503     0.262732  Biso 1.000000     C
    C   1.0     0.282452     0.423562     0.264293  Biso 1.000000     C
    C   1.0     0.782441     0.423563     0.264296  Biso 1.000000     C
    C   1.0     0.328513     0.379047     0.316249  Biso 1.000000     C
    C   1.0     0.828505     0.379049     0.316251  Biso 1.000000     C
    C   1.0     0.372757     0.425479     0.362876  Biso 1.000000     C
    C   1.0     0.872751     0.425481     0.362878  Biso 1.000000     C
    C   1.0     0.416613     0.379120     0.409301  Biso 1.000000     C
    C   1.0     0.916610     0.379123     0.409301  Biso 1.000000     C
    C   1.0     0.414957     0.286871     0.408208  Biso 1.000000     C
    C   1.0     0.914956     0.286873     0.408208  Biso 1.000000     C
    C   1.0     0.369013     0.244570     0.360830  Biso 1.000000     C
    C   1.0     0.869008     0.244572     0.360831  Biso 1.000000     C
    C   1.0    -0.002037     0.530571     0.243776  Biso 1.000000     C
    C   1.0     0.497965     0.530569     0.243773  Biso 1.000000     C
    C   1.0     0.484061     0.451476     0.203452  Biso 1.000000     C
    C   1.0     0.984048     0.451477     0.203456  Biso 1.000000     C
    C   1.0     0.030548     0.375005     0.214982  Biso 1.000000     C
    C   1.0     0.530544     0.375000     0.214980  Biso 1.000000     C
    C   1.0     0.022868     0.301995     0.176078  Biso 1.000000     C
    C   1.0     0.522863     0.301992     0.176074  Biso 1.000000     C
    C   1.0     0.463167     0.303440     0.125707  Biso 1.000000     C
    C   1.0     0.963163     0.303440     0.125710  Biso 1.000000     C
    C   1.0     0.415897     0.380284     0.115285  Biso 1.000000     C
    C   1.0     0.915884     0.380279     0.115291  Biso 1.000000     C
    C   1.0     0.426916     0.453857     0.152588  Biso 1.000000     C
    C   1.0     0.926903     0.453855     0.152591  Biso 1.000000     C
    C   1.0     0.082370     0.227230     0.188231  Biso 1.000000     C
    C   1.0     0.582361     0.227224     0.188230  Biso 1.000000     C
    C   1.0     0.446911     0.230707     0.080802  Biso 1.000000     C
    C   1.0     0.946910     0.230705     0.080807  Biso 1.000000     C
    C   1.0     0.374348     0.180400     0.078439  Biso 1.000000     C
    C   1.0     0.874346     0.180400     0.078440  Biso 1.000000     C
    C   1.0     0.316139     0.188407     0.125677  Biso 1.000000     C
    C   1.0     0.816136     0.188407     0.125678  Biso 1.000000     C
    C   1.0     0.356108     0.118984     0.031837  Biso 1.000000     C
    C   1.0     0.856113     0.118979     0.031839  Biso 1.000000     C
    C   1.0     0.409161     0.106108     0.987501  Biso 1.000000     C
    C   1.0     0.909168     0.106106     0.987504  Biso 1.000000     C
    C   1.0     0.480446     0.157279     0.989387  Biso 1.000000     C
    C   1.0     0.980457     0.157272     0.989397  Biso 1.000000     C
    C   1.0    -0.001358     0.218712     0.035087  Biso 1.000000     C
    C   1.0     0.498628     0.218715     0.035078  Biso 1.000000     C
    C   1.0     0.391141     0.039970     0.937983  Biso 1.000000     C
    C   1.0     0.891148     0.039970     0.937985  Biso 1.000000     C
    C   1.0     0.035428     0.905284     0.331644  Biso 1.000000     C
    C   1.0     0.535417     0.905269     0.331656  Biso 1.000000     C
    C   1.0     0.052493    -0.004677     0.336837  Biso 1.000000     C
    C   1.0     0.552489    -0.004694     0.336852  Biso 1.000000     C
    C   1.0     0.526361     0.050586     0.288619  Biso 1.000000     C
    C   1.0     0.000000     0.050598     0.288603  Biso 1.000000     C
    C   1.0     0.482922     0.014643     0.237543  Biso 1.000000     C
    C   1.0     0.982906     0.014648     0.237530  Biso 1.000000     C
    C   1.0     0.467408     0.923588     0.235858  Biso 1.000000     C
    C   1.0     0.967399     0.923592     0.235849  Biso 1.000000     C
    C   1.0     0.421504     0.878980     0.183852  Biso 1.000000     C
    C   1.0     0.921493     0.878978     0.183846  Biso 1.000000     C
    C   1.0     0.377197     0.925299     0.137217  Biso 1.000000     C
    C   1.0     0.877192     0.925293     0.137205  Biso 1.000000     C
    C   1.0     0.333512     0.878838     0.090743  Biso 1.000000     C
    C   1.0     0.833508     0.878829     0.090734  Biso 1.000000     C
    C   1.0     0.335414     0.786594     0.091784  Biso 1.000000     C
    C   1.0     0.835400     0.786584     0.091783  Biso 1.000000     C
    C   1.0     0.381399     0.744397     0.139170  Biso 1.000000     C
    C   1.0     0.881377     0.744391     0.139174  Biso 1.000000     C
    C   1.0     0.248006     0.969339     0.743725  Biso 1.000000     C
    C   1.0     0.748002     0.969339     0.743725  Biso 1.000000     C
    C   1.0     0.234125     0.048429     0.703386  Biso 1.000000     C
    C   1.0     0.734122     0.048429     0.703385  Biso 1.000000     C
    C   1.0     0.280538     0.124965     0.714942  Biso 1.000000     C
    C   1.0     0.780532     0.124967     0.714942  Biso 1.000000     C
    C   1.0     0.272841     0.197953     0.676032  Biso 1.000000     C
    C   1.0     0.772835     0.197953     0.676031  Biso 1.000000     C
    C   1.0     0.213176     0.196429     0.625645  Biso 1.000000     C
    C   1.0     0.713170     0.196428     0.625644  Biso 1.000000     C
    C   1.0     0.165995     0.119509     0.615184  Biso 1.000000     C
    C   1.0     0.665992     0.119506     0.615182  Biso 1.000000     C
    C   1.0     0.177057     0.045950     0.652477  Biso 1.000000     C
    C   1.0     0.677053     0.045948     0.652477  Biso 1.000000     C
    C   1.0     0.332323     0.272757     0.688195  Biso 1.000000     C
    C   1.0     0.832316     0.272758     0.688195  Biso 1.000000     C
    C   1.0     0.196866     0.269156     0.580760  Biso 1.000000     C
    C   1.0     0.696861     0.269155     0.580759  Biso 1.000000     C
    C   1.0     0.124307     0.319449     0.578410  Biso 1.000000     C
    C   1.0     0.624302     0.319447     0.578410  Biso 1.000000     C
    C   1.0     0.066097     0.311437     0.625652  Biso 1.000000     C
    C   1.0     0.566091     0.311438     0.625651  Biso 1.000000     C
    C   1.0     0.106098     0.380886     0.531828  Biso 1.000000     C
    C   1.0     0.606094     0.380887     0.531829  Biso 1.000000     C
    C   1.0     0.159168     0.393819     0.487486  Biso 1.000000     C
    C   1.0     0.659161     0.393817     0.487485  Biso 1.000000     C
    C   1.0     0.230451     0.342665     0.489367  Biso 1.000000     C
    C   1.0     0.730445     0.342664     0.489365  Biso 1.000000     C
    C   1.0     0.248592     0.281186     0.535048  Biso 1.000000     C
    C   1.0     0.748584     0.281183     0.535045  Biso 1.000000     C
    C   1.0     0.141174     0.459998     0.437998  Biso 1.000000     C
    C   1.0     0.641170     0.459998     0.437998  Biso 1.000000     C
    C   1.0     0.285446     0.594828     0.831562  Biso 1.000000     C
    C   1.0     0.785435     0.594824     0.831559  Biso 1.000000     C
    C   1.0     0.302906     0.504902     0.836642  Biso 1.000000     C
    C   1.0     0.802891     0.504898     0.836640  Biso 1.000000     C
    C   1.0     0.277058     0.449631     0.788324  Biso 1.000000     C
    C   1.0     0.777042     0.449627     0.788323  Biso 1.000000     C
    C   1.0     0.233469     0.485486     0.737292  Biso 1.000000     C
    C   1.0     0.733457     0.485484     0.737290  Biso 1.000000     C
    C   1.0     0.217558     0.576426     0.735726  Biso 1.000000     C
    C   1.0     0.717551     0.576424     0.735722  Biso 1.000000     C
    C   1.0     0.171496     0.620936     0.683770  Biso 1.000000     C
    C   1.0     0.671494     0.620937     0.683764  Biso 1.000000     C
    C   1.0     0.127253     0.574502     0.637143  Biso 1.000000     C
    C   1.0     0.627258     0.574505     0.637133  Biso 1.000000     C
    C   1.0     0.083396     0.620857     0.590717  Biso 1.000000     C
    C   1.0     0.583405     0.620862     0.590706  Biso 1.000000     C
    C   1.0     0.085051     0.713107     0.591807  Biso 1.000000     C
    C   1.0     0.585055     0.713112     0.591800  Biso 1.000000     C
    C   1.0     0.130996     0.755411     0.639184  Biso 1.000000     C
    C   1.0     0.630994     0.755414     0.639182  Biso 1.000000     C
    C   1.0     0.502032     0.469419     0.756244  Biso 1.000000     C
    C   1.0     0.000000     0.469418     0.756242  Biso 1.000000     C
    C   1.0     0.015941     0.548512     0.796562  Biso 1.000000     C
    C   1.0     0.515935     0.548512     0.796566  Biso 1.000000     C
    C   1.0     0.469454     0.624990     0.785038  Biso 1.000000     C
    C   1.0     0.969444     0.624985     0.785037  Biso 1.000000     C
    C   1.0     0.477133     0.697996     0.823946  Biso 1.000000     C
    C   1.0     0.977125     0.697994     0.823942  Biso 1.000000     C
    C   1.0     0.036832     0.696547     0.874308  Biso 1.000000     C
    C   1.0     0.536829     0.696548     0.874313  Biso 1.000000     C
    C   1.0     0.084108     0.619707     0.884727  Biso 1.000000     C
    C   1.0     0.584096     0.619702     0.884735  Biso 1.000000     C
    C   1.0     0.073089     0.546133     0.847425  Biso 1.000000     C
    C   1.0     0.573080     0.546131     0.847430  Biso 1.000000     C
    C   1.0     0.417635     0.772764     0.811788  Biso 1.000000     C
    C   1.0     0.917626     0.772761     0.811787  Biso 1.000000     C
    C   1.0     0.053084     0.769281     0.919213  Biso 1.000000     C
    C   1.0     0.553086     0.769282     0.919218  Biso 1.000000     C
    C   1.0     0.125649     0.819586     0.921579  Biso 1.000000     C
    C   1.0     0.625653     0.819583     0.921579  Biso 1.000000     C
    C   1.0     0.183858     0.811582     0.874341  Biso 1.000000     C
    C   1.0     0.683859     0.811578     0.874340  Biso 1.000000     C
    C   1.0     0.143884     0.881005     0.968180  Biso 1.000000     C
    C   1.0     0.643896     0.881003     0.968179  Biso 1.000000     C
    C   1.0     0.090832     0.893876     0.012517  Biso 1.000000     C
    C   1.0     0.590850     0.893876     0.012520  Biso 1.000000     C
    C   1.0     0.019544     0.842709     0.010626  Biso 1.000000     C
    C   1.0     0.519562     0.842712     0.010635  Biso 1.000000     C
    C   1.0     0.501376     0.781274     0.964946  Biso 1.000000     C
    C   1.0     0.000000     0.781271     0.964936  Biso 1.000000     C
    C   1.0     0.108850     0.960014     0.062035  Biso 1.000000     C
    C   1.0     0.608869     0.960019     0.062035  Biso 1.000000     C
    C   1.0     0.464579     0.094707     0.668375  Biso 1.000000     C
    C   1.0     0.964571     0.094710     0.668372  Biso 1.000000     C
    C   1.0     0.447528     0.000000     0.663179  Biso 1.000000     C
    C   1.0     0.947516     0.000000     0.663176  Biso 1.000000     C
    C   1.0    -0.026330     0.949393     0.711407  Biso 1.000000     C
    C   1.0     0.473674     0.949390     0.711410  Biso 1.000000     C
    C   1.0     0.017105     0.985343     0.762482  Biso 1.000000     C
    C   1.0     0.517108     0.985341     0.762485  Biso 1.000000     C
    C   1.0     0.032603     0.076401     0.764167  Biso 1.000000     C
    C   1.0     0.532603     0.076400     0.764170  Biso 1.000000     C
    C   1.0     0.078506     0.121015     0.816170  Biso 1.000000     C
    C   1.0     0.578505     0.121016     0.816173  Biso 1.000000     C
    C   1.0     0.122814     0.074701     0.862809  Biso 1.000000     C
    C   1.0     0.622808     0.074704     0.862815  Biso 1.000000     C
    C   1.0     0.166501     0.121167     0.909278  Biso 1.000000     C
    C   1.0     0.666494     0.121171     0.909284  Biso 1.000000     C
    C   1.0     0.164601     0.213411     0.908232  Biso 1.000000     C
    C   1.0     0.664599     0.213416     0.908233  Biso 1.000000     C
    C   1.0     0.118615     0.255603     0.860844  Biso 1.000000     C
    C   1.0     0.618618     0.255606     0.860843  Biso 1.000000     C
    N   1.0     0.255748     0.370220     0.217764  Biso 1.000000     N
    N   1.0     0.755736     0.370219     0.217769  Biso 1.000000     N
    N   1.0     0.326832     0.289429     0.315762  Biso 1.000000     N
    N   1.0     0.826825     0.289431     0.315764  Biso 1.000000     N
    N   1.0     0.494346     0.870254     0.282316  Biso 1.000000     N
    N   1.0     0.994345     0.870263     0.282307  Biso 1.000000     N
    N   1.0     0.423390     0.789365     0.184288  Biso 1.000000     N
    N   1.0     0.923372     0.789363     0.184289  Biso 1.000000     N
    N   1.0     0.244260     0.629772     0.782254  Biso 1.000000     N
    N   1.0     0.744253     0.629769     0.782250  Biso 1.000000     N
    N   1.0     0.173176     0.710555     0.684254  Biso 1.000000     N
    N   1.0     0.673170     0.710556     0.684252  Biso 1.000000     N
    N   1.0     0.005652     0.129731     0.717710  Biso 1.000000     N
    N   1.0     0.505649     0.129729     0.717714  Biso 1.000000     N
    N   1.0     0.076622     0.210629     0.815730  Biso 1.000000     N
    N   1.0     0.576623     0.210631     0.815730  Biso 1.000000     N
    O   1.0     0.271261     0.105763     0.279034  Biso 1.000000     O
    O   1.0     0.771258     0.105769     0.279037  Biso 1.000000     O
    O   1.0     0.221564     0.014730     0.202507  Biso 1.000000     O
    O   1.0     0.721563     0.014733     0.202511  Biso 1.000000     O
    O   1.0     0.177044     0.659837     0.346338  Biso 1.000000     O
    O   1.0     0.677040     0.659841     0.346340  Biso 1.000000     O
    O   1.0     0.111538     0.736298     0.268668  Biso 1.000000     O
    O   1.0     0.611535     0.736304     0.268670  Biso 1.000000     O
    O   1.0     0.403703     0.701345     0.320044  Biso 1.000000     O
    O   1.0     0.903699     0.701373     0.320049  Biso 1.000000     O
    O   1.0     0.010257     0.681482     0.390609  Biso 1.000000     O
    O   1.0     0.510250     0.681480     0.390609  Biso 1.000000     O
    O   1.0     0.419724     0.486181     0.557776  Biso 1.000000     O
    O   1.0     0.919721     0.486179     0.557775  Biso 1.000000     O
    O   1.0     0.316574     0.536890     0.605937  Biso 1.000000     O
    O   1.0     0.816573     0.536890     0.605938  Biso 1.000000     O
    O   1.0     0.478720     0.605677     0.221033  Biso 1.000000     O
    O   1.0     0.978706     0.605678     0.221036  Biso 1.000000     O
    O   1.0     0.028430     0.514700     0.297554  Biso 1.000000     O
    O   1.0     0.528433     0.514698     0.297551  Biso 1.000000     O
    O   1.0     0.072980     0.159835     0.153706  Biso 1.000000     O
    O   1.0     0.572974     0.159833     0.153702  Biso 1.000000     O
    O   1.0     0.138530     0.236364     0.231367  Biso 1.000000     O
    O   1.0     0.638524     0.236360     0.231364  Biso 1.000000     O
    O   1.0     0.346362     0.201000     0.180021  Biso 1.000000     O
    O   1.0     0.846357     0.201004     0.180021  Biso 1.000000     O
    O   1.0     0.239781     0.181496     0.109416  Biso 1.000000     O
    O   1.0     0.739778     0.181498     0.109415  Biso 1.000000     O
    O   1.0     0.330238     0.986129     0.942222  Biso 1.000000     O
    O   1.0     0.830242     0.986133     0.942219  Biso 1.000000     O
    O   1.0     0.433349     0.036912     0.894037  Biso 1.000000     O
    O   1.0     0.933356     0.036914     0.894038  Biso 1.000000     O
    O   1.0     0.228738     0.894223     0.720984  Biso 1.000000     O
    O   1.0     0.728733     0.894222     0.720984  Biso 1.000000     O
    O   1.0     0.278435     0.985255     0.797511  Biso 1.000000     O
    O   1.0     0.778432     0.985255     0.797510  Biso 1.000000     O
    O   1.0     0.322955     0.340151     0.653682  Biso 1.000000     O
    O   1.0     0.822950     0.340150     0.653680  Biso 1.000000     O
    O   1.0     0.388462     0.263690     0.731351  Biso 1.000000     O
    O   1.0     0.888456     0.263689     0.731350  Biso 1.000000     O
    O   1.0     0.096296     0.298632     0.679971  Biso 1.000000     O
    O   1.0     0.596291     0.298626     0.679970  Biso 1.000000     O
    O   1.0     0.489743     0.318503     0.609409  Biso 1.000000     O
    O   1.0     0.989739     0.318503     0.609408  Biso 1.000000     O
    O   1.0     0.080275     0.513803     0.442241  Biso 1.000000     O
    O   1.0     0.580270     0.513802     0.442240  Biso 1.000000     O
    O   1.0     0.183423     0.463092     0.394078  Biso 1.000000     O
    O   1.0     0.683417     0.463092     0.394077  Biso 1.000000     O
    O   1.0     0.021283     0.394311     0.778983  Biso 1.000000     O
    O   1.0     0.521279     0.394312     0.778984  Biso 1.000000     O
    O   1.0     0.471564     0.485289     0.702467  Biso 1.000000     O
    O   1.0     0.971560     0.485288     0.702464  Biso 1.000000     O
    O   1.0     0.427020     0.840153     0.846318  Biso 1.000000     O
    O   1.0     0.927016     0.840153     0.846313  Biso 1.000000     O
    O   1.0     0.361471     0.763627     0.768656  Biso 1.000000     O
    O   1.0     0.861465     0.763627     0.768652  Biso 1.000000     O
    O   1.0     0.153636     0.798985     0.819998  Biso 1.000000     O
    O   1.0     0.653635     0.798975     0.819998  Biso 1.000000     O
    O   1.0     0.260217     0.818487     0.890602  Biso 1.000000     O
    O   1.0     0.760218     0.818485     0.890601  Biso 1.000000     O
    O   1.0     0.169755     0.013852     0.057800  Biso 1.000000     O
    O   1.0     0.669768     0.013862     0.057794  Biso 1.000000     O
    O   1.0     0.066643     0.963071     0.105983  Biso 1.000000     O
    O   1.0     0.566666     0.963072     0.105985  Biso 1.000000     O
   Zn   1.0     0.163051     0.081509     0.135141  Biso 1.000000    Zn
   Zn   1.0     0.663048     0.081508     0.135142  Biso 1.000000    Zn
   Zn   1.0     0.264203     0.229474     0.239460  Biso 1.000000    Zn
   Zn   1.0     0.764198     0.229476     0.239460  Biso 1.000000    Zn
   Zn   1.0     0.086952     0.581496     0.364910  Biso 1.000000    Zn
   Zn   1.0     0.586948     0.581496     0.364910  Biso 1.000000    Zn
   Zn   1.0     0.485863     0.729473     0.260569  Biso 1.000000    Zn
   Zn   1.0     0.985857     0.729477     0.260569  Biso 1.000000    Zn
   Zn   1.0     0.336947     0.918476     0.864878  Biso 1.000000    Zn
   Zn   1.0     0.836944     0.918477     0.864877  Biso 1.000000    Zn
   Zn   1.0     0.235797     0.770512     0.760559  Biso 1.000000    Zn
   Zn   1.0     0.735793     0.770511     0.760557  Biso 1.000000    Zn
   Zn   1.0     0.413047     0.418490     0.635108  Biso 1.000000    Zn
   Zn   1.0     0.913042     0.418489     0.635107  Biso 1.000000    Zn
   Zn   1.0     0.014138     0.270512     0.739449  Biso 1.000000    Zn
   Zn   1.0     0.514133     0.270512     0.739449  Biso 1.000000    Zn
