#======================================================================

# CRYSTAL DATA

#----------------------------------------------------------------------

data_VESTA_phase_1


_pd_phase_name                         MOF
_cell_length_a                         12.13800
_cell_length_b                         13.02300
_cell_length_c                         13.03400
_cell_angle_alpha                      107.96500
_cell_angle_beta                       106.08500
_cell_angle_gamma                      106.07700
_symmetry_space_group_name_H-M         "P 1"
_symmetry_Int_Tables_number            1

loop_
_symmetry_equiv_pos_as_xyz
   "x, y, z"

loop_
   _atom_site_label
   _atom_site_occupancy
   _atom_site_fract_x
   _atom_site_fract_y
   _atom_site_fract_z
   _atom_site_adp_type
   _atom_site_B_iso_or_equiv
   _atom_site_type_symbol
    H   1.0     0.672743     0.331857     0.168133  Biso 1.000000     H
    H   1.0     0.792304     0.459313     0.912628  Biso 1.000000     H
    H   1.0     0.990722     0.244696     0.237261  Biso 1.000000     H
    H   1.0     0.915110     0.492717     0.606301  Biso 1.000000     H
    H   1.0     0.962841     0.224273     0.707501  Biso 1.000000     H
    H   1.0     0.761318     0.427061     0.076962  Biso 1.000000     H
    H   1.0     0.737506     0.318836     0.383357  Biso 1.000000     H
    H   1.0     0.867275     0.519504     0.806795  Biso 1.000000     H
    H   1.0     0.938119     0.179369     0.036077  Biso 1.000000     H
    H   1.0     0.981037     0.219771     0.876285  Biso 1.000000     H
    H   1.0     0.827644     0.831551     0.668081  Biso 1.000000     H
    H   1.0     0.707765     0.087275     0.540458  Biso 1.000000     H
    H   1.0     0.509842     0.762961     0.755443  Biso 1.000000     H
    H   1.0     0.584135     0.393683     0.507055  Biso 1.000000     H
    H   1.0     0.537708     0.292642     0.775749  Biso 1.000000     H
    H   1.0     0.739025     0.922940     0.572880  Biso 1.000000     H
    H   1.0     0.762664     0.616215     0.681307  Biso 1.000000     H
    H   1.0     0.632308     0.193154     0.480168  Biso 1.000000     H
    H   1.0     0.562622     0.964129     0.820651  Biso 1.000000     H
    H   1.0     0.519422     0.123840     0.780080  Biso 1.000000     H
    H   1.0     0.327272     0.668172     0.831883  Biso 1.000000     H
    H   1.0     0.207712     0.540716     0.087389  Biso 1.000000     H
    H   1.0     0.009292     0.755334     0.762757  Biso 1.000000     H
    H   1.0     0.084903     0.507313     0.393717  Biso 1.000000     H
    H   1.0     0.037174     0.775756     0.292515  Biso 1.000000     H
    H   1.0     0.238697     0.572968     0.923055  Biso 1.000000     H
    H   1.0     0.262509     0.681196     0.616660  Biso 1.000000     H
    H   1.0     0.132743     0.480526     0.193226  Biso 1.000000     H
    H   1.0     0.061896     0.820660     0.963941  Biso 1.000000     H
    H   1.0     0.018980     0.780258     0.123733  Biso 1.000000     H
    H   1.0     0.172371     0.168477     0.331935  Biso 1.000000     H
    H   1.0     0.292251     0.912755     0.459559  Biso 1.000000     H
    H   1.0     0.490175     0.237069     0.244575  Biso 1.000000     H
    H   1.0     0.415877     0.606347     0.492963  Biso 1.000000     H
    H   1.0     0.462308     0.707386     0.224269  Biso 1.000000     H
    H   1.0     0.260993     0.077090     0.427138  Biso 1.000000     H
    H   1.0     0.237353     0.383815     0.318714  Biso 1.000000     H
    H   1.0     0.367709     0.806878     0.519851  Biso 1.000000     H
    H   1.0     0.437394     0.035900     0.179366  Biso 1.000000     H
    H   1.0     0.480595     0.876189     0.219937  Biso 1.000000     H
    C   1.0     0.919179     0.441368     0.657890  Biso 1.000000     C
    C   1.0     0.944296     0.300713     0.706669  Biso 1.000000     C
    C   1.0     0.747878     0.312304     0.214650  Biso 1.000000     C
    C   1.0     0.823211     0.008578     0.381278  Biso 1.000000     C
    C   1.0     0.847411     0.300773     0.068363  Biso 1.000000     C
    C   1.0     0.926219     0.012296     0.331301  Biso 1.000000     C
    C   1.0     0.912600     0.264418     0.247915  Biso 1.000000     C
    C   1.0     0.889626     0.342285     0.881939  Biso 1.000000     C
    C   1.0     0.806682     0.378859     0.031943  Biso 1.000000     C
    C   1.0     0.930541     0.263702     0.917956  Biso 1.000000     C
    C   1.0     0.907606     0.241943     0.009877  Biso 1.000000     C
    C   1.0     0.826954     0.398734     0.938660  Biso 1.000000     C
    C   1.0     0.894096     0.455274     0.756305  Biso 1.000000     C
    C   1.0     0.779525     0.303144     0.319899  Biso 1.000000     C
    C   1.0     0.580345     0.342099     0.558420  Biso 1.000000     C
    C   1.0     0.555868     0.293371     0.699190  Biso 1.000000     C
    C   1.0     0.752517     0.785112     0.687692  Biso 1.000000     C
    C   1.0     0.675969     0.618273     0.991245  Biso 1.000000     C
    C   1.0     0.653153     0.931698     0.699214  Biso 1.000000     C
    C   1.0     0.572801     0.668138     0.987177  Biso 1.000000     C
    C   1.0     0.587918     0.752169     0.735732  Biso 1.000000     C
    C   1.0     0.610593     0.118045     0.657501  Biso 1.000000     C
    C   1.0     0.693651     0.968001     0.621024  Biso 1.000000     C
    C   1.0     0.569931     0.082153     0.736200  Biso 1.000000     C
    C   1.0     0.592955     0.990227     0.757995  Biso 1.000000     C
    C   1.0     0.673293     0.061311     0.601115  Biso 1.000000     C
    C   1.0     0.605580     0.243660     0.544452  Biso 1.000000     C
    C   1.0     0.720767     0.679834     0.696965  Biso 1.000000     C
    C   1.0     0.249546     0.345764     0.653376  Biso 1.000000     C
    C   1.0     0.249950     0.419448     0.580604  Biso 1.000000     C
    C   1.0     0.080835     0.558662     0.342128  Biso 1.000000     C
    C   1.0     0.055718     0.699316     0.293348  Biso 1.000000     C
    C   1.0     0.252137     0.687726     0.785367  Biso 1.000000     C
    C   1.0     0.176809     0.991450     0.618740  Biso 1.000000     C
    C   1.0     0.152608     0.699258     0.931657  Biso 1.000000     C
    C   1.0     0.073797     0.987735     0.668710  Biso 1.000000     C
    C   1.0     0.087415     0.735612     0.752103  Biso 1.000000     C
    C   1.0     0.110387     0.657742     0.118077  Biso 1.000000     C
    C   1.0     0.193331     0.621168     0.968073  Biso 1.000000     C
    C   1.0     0.069478     0.736329     0.082064  Biso 1.000000     C
    C   1.0     0.092407     0.758083     0.990139  Biso 1.000000     C
    C   1.0     0.173065     0.601297     0.061360  Biso 1.000000     C
    C   1.0     0.105919     0.544756     0.243714  Biso 1.000000     C
    C   1.0     0.220490     0.696887     0.680118  Biso 1.000000     C
    C   1.0     0.419669     0.657932     0.441599  Biso 1.000000     C
    C   1.0     0.444144     0.706656     0.300827  Biso 1.000000     C
    C   1.0     0.247500     0.214919     0.312328  Biso 1.000000     C
    C   1.0     0.324043     0.381746     0.008774  Biso 1.000000     C
    C   1.0     0.346873     0.068338     0.300810  Biso 1.000000     C
    C   1.0     0.427224     0.331898     0.012840  Biso 1.000000     C
    C   1.0     0.412099     0.247862     0.264288  Biso 1.000000     C
    C   1.0     0.389413     0.881978     0.342509  Biso 1.000000     C
    C   1.0     0.306356     0.032022     0.378986  Biso 1.000000     C
    C   1.0     0.430094     0.917883     0.263825  Biso 1.000000     C
    C   1.0     0.407052     0.009797     0.242015  Biso 1.000000     C
    C   1.0     0.326733     0.938725     0.398910  Biso 1.000000     C
    C   1.0     0.394434     0.756370     0.455566  Biso 1.000000     C
    C   1.0     0.279249     0.320196     0.303053  Biso 1.000000     C
    C   1.0     0.750464     0.654260     0.346636  Biso 1.000000     C
    C   1.0     0.750066     0.580580     0.419411  Biso 1.000000     C
    N   1.0     0.950196     0.344618     0.627712  Biso 1.000000     N
    N   1.0     0.882118     0.273414     0.339775  Biso 1.000000     N
    N   1.0     0.833131     0.287144     0.169020  Biso 1.000000     N
    N   1.0     0.910061     0.365260     0.787070  Biso 1.000000     N
    N   1.0     0.549641     0.372306     0.655279  Biso 1.000000     N
    N   1.0     0.618265     0.660166     0.726803  Biso 1.000000     N
    N   1.0     0.667374     0.830944     0.712858  Biso 1.000000     N
    N   1.0     0.590039     0.212959     0.634550  Biso 1.000000     N
    N   1.0     0.049818     0.655412     0.372305  Biso 1.000000     N
    N   1.0     0.117897     0.726617     0.660243  Biso 1.000000     N
    N   1.0     0.166883     0.712884     0.830997  Biso 1.000000     N
    N   1.0     0.089957     0.634771     0.212949  Biso 1.000000     N
    N   1.0     0.450373     0.627723     0.344739  Biso 1.000000     N
    N   1.0     0.381751     0.339864     0.273216  Biso 1.000000     N
    N   1.0     0.332638     0.169083     0.287155  Biso 1.000000     N
    N   1.0     0.409981     0.787073     0.365470  Biso 1.000000     N
    O   1.0     0.913720     0.915885     0.255897  Biso 1.000000     O
    O   1.0     0.731617     0.910906     0.341726  Biso 1.000000     O
    O   1.0     0.837220     0.103828     0.458311  Biso 1.000000     O
    O   1.0     0.014370     0.111217     0.369033  Biso 1.000000     O
    O   1.0     0.584858     0.743457     0.083390  Biso 1.000000     O
    O   1.0     0.767410     0.657983     0.088975  Biso 1.000000     O
    O   1.0     0.662170     0.541177     0.896166  Biso 1.000000     O
    O   1.0     0.484868     0.630364     0.888169  Biso 1.000000     O
    O   1.0     0.146913     0.393183     0.499702  Biso 1.000000     O
    O   1.0     0.148512     0.262005     0.627456  Biso 1.000000     O
    O   1.0     0.353241     0.500407     0.607395  Biso 1.000000     O
    O   1.0     0.350298     0.371047     0.737200  Biso 1.000000     O
    O   1.0     0.853103     0.606849     0.500313  Biso 1.000000     O
    O   1.0     0.851496     0.738018     0.372549  Biso 1.000000     O
    O   1.0     0.646776     0.499621     0.392624  Biso 1.000000     O
    O   1.0     0.649709     0.628974     0.262812  Biso 1.000000     O
    O   1.0     0.086300     0.084146     0.744118  Biso 1.000000     O
    O   1.0     0.268402     0.089122     0.658289  Biso 1.000000     O
    O   1.0     0.162798     0.896200     0.541706  Biso 1.000000     O
    O   1.0     0.985646     0.888814     0.630980  Biso 1.000000     O
    O   1.0     0.415169     0.256579     0.916627  Biso 1.000000     O
    O   1.0     0.232606     0.342038     0.911042  Biso 1.000000     O
    O   1.0     0.337841     0.458844     0.103852  Biso 1.000000     O
    O   1.0     0.515153     0.369668     0.111849  Biso 1.000000     O
   Zn   1.0     0.987713     0.256323     0.485773  Biso 1.000000    Zn
   Zn   1.0     0.512089     0.514092     0.743635  Biso 1.000000    Zn
   Zn   1.0     0.749117     0.779107     0.220398  Biso 1.000000    Zn
   Zn   1.0     0.012301     0.743707     0.514244  Biso 1.000000    Zn
   Zn   1.0     0.487925     0.485937     0.256384  Biso 1.000000    Zn
   Zn   1.0     0.250907     0.220924     0.779620  Biso 1.000000    Zn
