#======================================================================

# CRYSTAL DATA

#----------------------------------------------------------------------

data_VESTA_phase_1


_pd_phase_name                         MOF
_cell_length_a                         16.40900
_cell_length_b                         16.40900
_cell_length_c                         15.74900
_cell_angle_alpha                      94.81700
_cell_angle_beta                       94.79900
_cell_angle_gamma                      90.29200
_symmetry_space_group_name_H-M         "P 1"
_symmetry_Int_Tables_number            1

loop_
_symmetry_equiv_pos_as_xyz
   "x, y, z"

loop_
   _atom_site_label
   _atom_site_occupancy
   _atom_site_fract_x
   _atom_site_fract_y
   _atom_site_fract_z
   _atom_site_adp_type
   _atom_site_B_iso_or_equiv
   _atom_site_type_symbol
    H   1.0     0.430326     0.097187     0.922744  Biso 1.000000     H
    H   1.0     0.430332     0.597187     0.922740  Biso 1.000000     H
    H   1.0     0.930315     0.097187     0.922741  Biso 1.000000     H
    H   1.0     0.930316     0.597188     0.922743  Biso 1.000000     H
    H   1.0     0.027433     0.096206     0.904130  Biso 1.000000     H
    H   1.0     0.027432     0.596207     0.904129  Biso 1.000000     H
    H   1.0     0.527417     0.096205     0.904130  Biso 1.000000     H
    H   1.0     0.527424     0.596207     0.904132  Biso 1.000000     H
    H   1.0     0.067024     0.057492     0.046672  Biso 1.000000     H
    H   1.0     0.067028     0.557494     0.046670  Biso 1.000000     H
    H   1.0     0.567012     0.057491     0.046671  Biso 1.000000     H
    H   1.0     0.567013     0.557494     0.046675  Biso 1.000000     H
    H   1.0     0.462792     0.058318     0.066385  Biso 1.000000     H
    H   1.0     0.462791     0.558318     0.066383  Biso 1.000000     H
    H   1.0     0.962777     0.058318     0.066383  Biso 1.000000     H
    H   1.0     0.962782     0.558319     0.066385  Biso 1.000000     H
    H   1.0     0.038002     0.442217     0.929803  Biso 1.000000     H
    H   1.0     0.038009     0.942217     0.929804  Biso 1.000000     H
    H   1.0     0.537994     0.442217     0.929806  Biso 1.000000     H
    H   1.0     0.537993     0.942217     0.929803  Biso 1.000000     H
    H   1.0     0.433772     0.443054     0.949511  Biso 1.000000     H
    H   1.0     0.433772     0.943057     0.949514  Biso 1.000000     H
    H   1.0     0.933756     0.443055     0.949514  Biso 1.000000     H
    H   1.0     0.933762     0.943057     0.949512  Biso 1.000000     H
    H   1.0    -0.026590     0.404355     0.092082  Biso 1.000000     H
    H   1.0    -0.026589     0.904356     0.092080  Biso 1.000000     H
    H   1.0     0.473393     0.404354     0.092080  Biso 1.000000     H
    H   1.0     0.473400     0.904356     0.092082  Biso 1.000000     H
    H   1.0     0.070481     0.403265     0.073383  Biso 1.000000     H
    H   1.0     0.070482     0.903265     0.073385  Biso 1.000000     H
    H   1.0     0.570465     0.403265     0.073387  Biso 1.000000     H
    H   1.0     0.570470     0.903265     0.073384  Biso 1.000000     H
    H   1.0     0.097176     0.430026     0.423057  Biso 1.000000     H
    H   1.0     0.097181     0.930027     0.423057  Biso 1.000000     H
    H   1.0     0.597163     0.430024     0.423058  Biso 1.000000     H
    H   1.0     0.597168     0.930030     0.423054  Biso 1.000000     H
    H   1.0     0.096140     0.026978     0.403941  Biso 1.000000     H
    H   1.0     0.096145     0.526979     0.403941  Biso 1.000000     H
    H   1.0     0.596128     0.026982     0.403942  Biso 1.000000     H
    H   1.0     0.596132     0.526977     0.403940  Biso 1.000000     H
    H   1.0     0.057399     0.067277     0.546331  Biso 1.000000     H
    H   1.0     0.057403     0.567279     0.546331  Biso 1.000000     H
    H   1.0     0.557386     0.067276     0.546333  Biso 1.000000     H
    H   1.0     0.557390     0.567280     0.546329  Biso 1.000000     H
    H   1.0     0.058272     0.463165     0.566580  Biso 1.000000     H
    H   1.0     0.058276     0.963166     0.566580  Biso 1.000000     H
    H   1.0     0.558259     0.463167     0.566581  Biso 1.000000     H
    H   1.0     0.558263     0.963164     0.566577  Biso 1.000000     H
    H   1.0     0.442116     0.037694     0.429598  Biso 1.000000     H
    H   1.0     0.442120     0.537691     0.429595  Biso 1.000000     H
    H   1.0     0.942103     0.037691     0.429597  Biso 1.000000     H
    H   1.0     0.942107     0.537693     0.429596  Biso 1.000000     H
    H   1.0     0.442998     0.433579     0.449848  Biso 1.000000     H
    H   1.0     0.443002     0.933583     0.449844  Biso 1.000000     H
    H   1.0     0.942985     0.433580     0.449847  Biso 1.000000     H
    H   1.0     0.942990     0.933580     0.449847  Biso 1.000000     H
    H   1.0     0.404254    -0.026104     0.592246  Biso 1.000000     H
    H   1.0     0.404258     0.473904     0.592249  Biso 1.000000     H
    H   1.0     0.904241    -0.026102     0.592248  Biso 1.000000     H
    H   1.0     0.904245     0.473902     0.592248  Biso 1.000000     H
    H   1.0     0.403150     0.070838     0.573082  Biso 1.000000     H
    H   1.0     0.403154     0.570843     0.573077  Biso 1.000000     H
    H   1.0     0.903137     0.070839     0.573080  Biso 1.000000     H
    H   1.0     0.903142     0.570842     0.573079  Biso 1.000000     H
    C   1.0     0.127032     0.269296     0.831544  Biso 1.000000     C
    C   1.0     0.127034     0.769297     0.831543  Biso 1.000000     C
    C   1.0     0.627019     0.269296     0.831544  Biso 1.000000     C
    C   1.0     0.627021     0.769297     0.831544  Biso 1.000000     C
    C   1.0     0.373575     0.231368     0.164612  Biso 1.000000     C
    C   1.0     0.373577     0.731369     0.164612  Biso 1.000000     C
    C   1.0     0.873562     0.231368     0.164612  Biso 1.000000     C
    C   1.0     0.873564     0.731369     0.164611  Biso 1.000000     C
    C   1.0     0.228952     0.164073     0.651373  Biso 1.000000     C
    C   1.0     0.228955     0.664074     0.651373  Biso 1.000000     C
    C   1.0     0.728939     0.164073     0.651373  Biso 1.000000     C
    C   1.0     0.728942     0.664074     0.651373  Biso 1.000000     C
    C   1.0     0.336753     0.271549     0.844558  Biso 1.000000     C
    C   1.0     0.336755     0.771550     0.844558  Biso 1.000000     C
    C   1.0     0.836740     0.271549     0.844558  Biso 1.000000     C
    C   1.0     0.836742     0.771551     0.844558  Biso 1.000000     C
    C   1.0     0.004873     0.045078     0.016233  Biso 1.000000     C
    C   1.0     0.004877     0.545079     0.016233  Biso 1.000000     C
    C   1.0     0.504860     0.045077     0.016233  Biso 1.000000     C
    C   1.0     0.504863     0.545079     0.016233  Biso 1.000000     C
    C   1.0     0.495923     0.455456     0.979955  Biso 1.000000     C
    C   1.0     0.495925     0.955457     0.979956  Biso 1.000000     C
    C   1.0     0.995909     0.455457     0.979955  Biso 1.000000     C
    C   1.0     0.995914     0.955458     0.979955  Biso 1.000000     C
    C   1.0     0.269207     0.126865     0.331415  Biso 1.000000     C
    C   1.0     0.269210     0.626866     0.331414  Biso 1.000000     C
    C   1.0     0.769195     0.126865     0.331415  Biso 1.000000     C
    C   1.0     0.769197     0.626866     0.331414  Biso 1.000000     C
    C   1.0     0.231337     0.373844     0.664739  Biso 1.000000     C
    C   1.0     0.231340     0.873845     0.664739  Biso 1.000000     C
    C   1.0     0.731324     0.373843     0.664739  Biso 1.000000     C
    C   1.0     0.731326     0.873844     0.664738  Biso 1.000000     C
    C   1.0     0.163842     0.229079     0.151609  Biso 1.000000     C
    C   1.0     0.163844     0.729081     0.151608  Biso 1.000000     C
    C   1.0     0.663829     0.229079     0.151609  Biso 1.000000     C
    C   1.0     0.663832     0.729080     0.151609  Biso 1.000000     C
    C   1.0     0.271556     0.336624     0.344793  Biso 1.000000     C
    C   1.0     0.271559     0.836625     0.344793  Biso 1.000000     C
    C   1.0     0.771543     0.336624     0.344793  Biso 1.000000     C
    C   1.0     0.771546     0.836625     0.344793  Biso 1.000000     C
    C   1.0     0.044996     0.004995     0.516226  Biso 1.000000     C
    C   1.0     0.045000     0.504997     0.516226  Biso 1.000000     C
    C   1.0     0.544983     0.004995     0.516226  Biso 1.000000     C
    C   1.0     0.544988     0.504997     0.516226  Biso 1.000000     C
    C   1.0     0.455392     0.495864     0.479952  Biso 1.000000     C
    C   1.0     0.455396     0.995866     0.479951  Biso 1.000000     C
    C   1.0     0.955379     0.495864     0.479952  Biso 1.000000     C
    C   1.0     0.955383     0.995864     0.479952  Biso 1.000000     C
    N   1.0     0.081868     0.266106     0.884981  Biso 1.000000     N
    N   1.0     0.081870     0.766106     0.884981  Biso 1.000000     N
    N   1.0     0.581855     0.266105     0.884982  Biso 1.000000     N
    N   1.0     0.581857     0.766107     0.884981  Biso 1.000000     N
    N   1.0     0.418721     0.234463     0.111145  Biso 1.000000     N
    N   1.0     0.418724     0.734464     0.111145  Biso 1.000000     N
    N   1.0     0.918709     0.234464     0.111145  Biso 1.000000     N
    N   1.0     0.918711     0.734465     0.111144  Biso 1.000000     N
    N   1.0     0.230039     0.113266     0.594629  Biso 1.000000     N
    N   1.0     0.230042     0.613267     0.594629  Biso 1.000000     N
    N   1.0     0.730026     0.113266     0.594629  Biso 1.000000     N
    N   1.0     0.730029     0.613267     0.594629  Biso 1.000000     N
    N   1.0     0.387576     0.270352     0.901254  Biso 1.000000     N
    N   1.0     0.387578     0.770352     0.901254  Biso 1.000000     N
    N   1.0     0.887563     0.270352     0.901254  Biso 1.000000     N
    N   1.0     0.887565     0.770354     0.901254  Biso 1.000000     N
    N   1.0     0.488549     0.104834     0.951821  Biso 1.000000     N
    N   1.0     0.488554     0.604835     0.951821  Biso 1.000000     N
    N   1.0     0.988538     0.104835     0.951820  Biso 1.000000     N
    N   1.0     0.988539     0.604836     0.951821  Biso 1.000000     N
    N   1.0     0.012233     0.395686     0.044353  Biso 1.000000     N
    N   1.0     0.012235     0.895687     0.044353  Biso 1.000000     N
    N   1.0     0.512218     0.395686     0.044354  Biso 1.000000     N
    N   1.0     0.512223     0.895687     0.044354  Biso 1.000000     N
    N   1.0     0.266043     0.081637     0.384784  Biso 1.000000     N
    N   1.0     0.266046     0.581638     0.384783  Biso 1.000000     N
    N   1.0     0.766031     0.081637     0.384784  Biso 1.000000     N
    N   1.0     0.766033     0.581638     0.384784  Biso 1.000000     N
    N   1.0     0.234387     0.419055     0.611338  Biso 1.000000     N
    N   1.0     0.234390     0.919055     0.611338  Biso 1.000000     N
    N   1.0     0.734374     0.419054     0.611338  Biso 1.000000     N
    N   1.0     0.734377     0.919055     0.611337  Biso 1.000000     N
    N   1.0     0.113022     0.230223     0.094903  Biso 1.000000     N
    N   1.0     0.113024     0.730224     0.094903  Biso 1.000000     N
    N   1.0     0.613009     0.230223     0.094903  Biso 1.000000     N
    N   1.0     0.613012     0.730224     0.094903  Biso 1.000000     N
    N   1.0     0.270390     0.387426     0.401533  Biso 1.000000     N
    N   1.0     0.270393     0.887427     0.401533  Biso 1.000000     N
    N   1.0     0.770377     0.387426     0.401533  Biso 1.000000     N
    N   1.0     0.770380     0.887427     0.401532  Biso 1.000000     N
    N   1.0     0.104744     0.488370     0.451859  Biso 1.000000     N
    N   1.0     0.104748     0.988372     0.451859  Biso 1.000000     N
    N   1.0     0.604731     0.488370     0.451859  Biso 1.000000     N
    N   1.0     0.604735     0.988374     0.451858  Biso 1.000000     N
    N   1.0     0.395633     0.012479     0.544307  Biso 1.000000     N
    N   1.0     0.395637     0.512483     0.544306  Biso 1.000000     N
    N   1.0     0.895620     0.012479     0.544307  Biso 1.000000     N
    N   1.0     0.895625     0.512482     0.544306  Biso 1.000000     N
   Cd   1.0     0.229505     0.271237     0.748048  Biso 1.000000    Cd
   Cd   1.0     0.229507     0.771238     0.748047  Biso 1.000000    Cd
   Cd   1.0     0.729492     0.271237     0.748048  Biso 1.000000    Cd
   Cd   1.0     0.729494     0.771238     0.748047  Biso 1.000000    Cd
   Cd   1.0     0.000310     0.250269     0.998053  Biso 1.000000    Cd
   Cd   1.0     0.000312     0.750270     0.998053  Biso 1.000000    Cd
   Cd   1.0     0.500295     0.250269    -0.001917  Biso 1.000000    Cd
   Cd   1.0     0.500297     0.750270    -0.001918  Biso 1.000000    Cd
   Cd   1.0     0.271102     0.229473     0.248115  Biso 1.000000    Cd
   Cd   1.0     0.271104     0.729474     0.248114  Biso 1.000000    Cd
   Cd   1.0     0.771089     0.229473     0.248115  Biso 1.000000    Cd
   Cd   1.0     0.771091     0.729474     0.248115  Biso 1.000000    Cd
   Cd   1.0     0.250193     0.000354     0.498065  Biso 1.000000    Cd
   Cd   1.0     0.250197     0.500355     0.498065  Biso 1.000000    Cd
   Cd   1.0     0.750181     0.000354     0.498065  Biso 1.000000    Cd
   Cd   1.0     0.750185     0.500355     0.498065  Biso 1.000000    Cd
