#======================================================================

# CRYSTAL DATA

#----------------------------------------------------------------------

data_VESTA_phase_1


_pd_phase_name                         MOF
_cell_length_a                         17.64900
_cell_length_b                         19.01400
_cell_length_c                         15.31600
_cell_angle_alpha                      87.39000
_cell_angle_beta                       85.11300
_cell_angle_gamma                      84.74200
_symmetry_space_group_name_H-M         "P 1"
_symmetry_Int_Tables_number            1

loop_
_symmetry_equiv_pos_as_xyz
   "x, y, z"

loop_
   _atom_site_label
   _atom_site_occupancy
   _atom_site_fract_x
   _atom_site_fract_y
   _atom_site_fract_z
   _atom_site_adp_type
   _atom_site_B_iso_or_equiv
   _atom_site_type_symbol
    H   1.0     0.272732     0.875920     0.218398  Biso 1.000000     H
    H   1.0     0.772738     0.875920     0.218398  Biso 1.000000     H
    H   1.0     0.298714     0.887601     0.058091  Biso 1.000000     H
    H   1.0     0.798719     0.887600     0.058091  Biso 1.000000     H
    H   1.0     0.185860     0.100941     0.072807  Biso 1.000000     H
    H   1.0     0.685867     0.100941     0.072807  Biso 1.000000     H
    H   1.0     0.165237     0.080654     0.230629  Biso 1.000000     H
    H   1.0     0.665242     0.080653     0.230629  Biso 1.000000     H
    H   1.0     0.206925     0.000000     0.358661  Biso 1.000000     H
    H   1.0     0.706931     0.000000     0.358660  Biso 1.000000     H
    H   1.0     0.233928     0.920210     0.348972  Biso 1.000000     H
    H   1.0     0.733934     0.920210     0.348972  Biso 1.000000     H
    H   1.0     0.137056     0.954799     0.333009  Biso 1.000000     H
    H   1.0     0.637061     0.954799     0.333009  Biso 1.000000     H
    H   1.0     0.227258     0.124107     0.781636  Biso 1.000000     H
    H   1.0     0.727265     0.124108     0.781637  Biso 1.000000     H
    H   1.0     0.201277     0.112426     0.941944  Biso 1.000000     H
    H   1.0     0.701282     0.112426     0.941944  Biso 1.000000     H
    H   1.0     0.314124     0.899084     0.927227  Biso 1.000000     H
    H   1.0     0.814129     0.899083     0.927227  Biso 1.000000     H
    H   1.0     0.334752     0.919373     0.769405  Biso 1.000000     H
    H   1.0     0.834755     0.919372     0.769405  Biso 1.000000     H
    H   1.0     0.293069    -0.012332     0.641374  Biso 1.000000     H
    H   1.0     0.793075    -0.012332     0.641373  Biso 1.000000     H
    H   1.0     0.266063     0.079817     0.651063  Biso 1.000000     H
    H   1.0     0.766068     0.079817     0.651063  Biso 1.000000     H
    H   1.0     0.362936     0.045231     0.667029  Biso 1.000000     H
    H   1.0     0.862941     0.045231     0.667029  Biso 1.000000     H
    H   1.0     0.227623     0.514125     0.352890  Biso 1.000000     H
    H   1.0     0.727628     0.514124     0.352892  Biso 1.000000     H
    H   1.0     0.234350     0.591844     0.473951  Biso 1.000000     H
    H   1.0     0.734354     0.591845     0.473951  Biso 1.000000     H
    H   1.0     0.485371     0.614239     0.500327  Biso 1.000000     H
    H   1.0     0.985370     0.614239     0.500327  Biso 1.000000     H
    H   1.0     0.488252     0.535931     0.376928  Biso 1.000000     H
    H   1.0     0.988251     0.535931     0.376927  Biso 1.000000     H
    H   1.0     0.231348     0.719182     0.713472  Biso 1.000000     H
    H   1.0     0.731352     0.719184     0.713470  Biso 1.000000     H
    H   1.0     0.235205     0.648037     0.582107  Biso 1.000000     H
    H   1.0     0.735211     0.648038     0.582107  Biso 1.000000     H
    H   1.0    -0.012825     0.677787     0.600069  Biso 1.000000     H
    H   1.0     0.487179     0.677786     0.600068  Biso 1.000000     H
    H   1.0    -0.007114     0.746038     0.731141  Biso 1.000000     H
    H   1.0     0.492891     0.746035     0.731143  Biso 1.000000     H
    H   1.0     0.147506     0.484236     0.236739  Biso 1.000000     H
    H   1.0     0.647512     0.484237     0.236739  Biso 1.000000     H
    H   1.0     0.048837     0.474444     0.269074  Biso 1.000000     H
    H   1.0     0.548842     0.474444     0.269073  Biso 1.000000     H
    H   1.0     0.121898     0.417662     0.317409  Biso 1.000000     H
    H   1.0     0.621903     0.417663     0.317410  Biso 1.000000     H
    H   1.0     0.117038     0.731938     0.862864  Biso 1.000000     H
    H   1.0     0.617043     0.731938     0.862864  Biso 1.000000     H
    H   1.0     0.061387     0.806401     0.818092  Biso 1.000000     H
    H   1.0     0.561391     0.806401     0.818092  Biso 1.000000     H
    H   1.0     0.164136     0.801120     0.803922  Biso 1.000000     H
    H   1.0     0.664141     0.801120     0.803922  Biso 1.000000     H
    H   1.0     0.272365     0.485906     0.647155  Biso 1.000000     H
    H   1.0     0.772370     0.485906     0.647155  Biso 1.000000     H
    H   1.0     0.265639     0.408185     0.526096  Biso 1.000000     H
    H   1.0     0.765643     0.408185     0.526096  Biso 1.000000     H
    H   1.0     0.014623     0.385790     0.499720  Biso 1.000000     H
    H   1.0     0.514622     0.385792     0.499718  Biso 1.000000     H
    H   1.0     0.011742     0.464097     0.623120  Biso 1.000000     H
    H   1.0     0.511742     0.464094     0.623123  Biso 1.000000     H
    H   1.0     0.268639     0.280845     0.286576  Biso 1.000000     H
    H   1.0     0.768644     0.280847     0.286576  Biso 1.000000     H
    H   1.0     0.264782     0.351991     0.417940  Biso 1.000000     H
    H   1.0     0.764787     0.351992     0.417940  Biso 1.000000     H
    H   1.0     0.512813     0.322242     0.399978  Biso 1.000000     H
    H   1.0     0.000000     0.322240     0.399979  Biso 1.000000     H
    H   1.0     0.507100     0.253987     0.268909  Biso 1.000000     H
    H   1.0     0.000000     0.253990     0.268905  Biso 1.000000     H
    H   1.0     0.352483     0.515793     0.763308  Biso 1.000000     H
    H   1.0     0.852489     0.515793     0.763308  Biso 1.000000     H
    H   1.0     0.451152     0.525587     0.730971  Biso 1.000000     H
    H   1.0     0.951158     0.525586     0.730970  Biso 1.000000     H
    H   1.0     0.378089     0.582367     0.682636  Biso 1.000000     H
    H   1.0     0.878095     0.582367     0.682636  Biso 1.000000     H
    H   1.0     0.382949     0.268086     0.137184  Biso 1.000000     H
    H   1.0     0.882954     0.268087     0.137185  Biso 1.000000     H
    H   1.0     0.438599     0.193623     0.181959  Biso 1.000000     H
    H   1.0     0.938603     0.193624     0.181958  Biso 1.000000     H
    H   1.0     0.335850     0.198906     0.196128  Biso 1.000000     H
    H   1.0     0.835854     0.198907     0.196128  Biso 1.000000     H
    C   1.0     0.221150     0.588648     0.848994  Biso 1.000000     C
    C   1.0     0.721154     0.588649     0.848995  Biso 1.000000     C
    C   1.0     0.472746     0.815106    -0.002358  Biso 1.000000     C
    C   1.0     0.972745     0.815108    -0.002355  Biso 1.000000     C
    C   1.0     0.367034     0.576134     0.086011  Biso 1.000000     C
    C   1.0     0.867041     0.576133     0.086008  Biso 1.000000     C
    C   1.0     0.183045     0.797704     0.007399  Biso 1.000000     C
    C   1.0     0.683049     0.797704     0.007400  Biso 1.000000     C
    C   1.0     0.018115     0.595550     0.852901  Biso 1.000000     C
    C   1.0     0.518116     0.595548     0.852902  Biso 1.000000     C
    C   1.0     0.089578     0.955263     0.842393  Biso 1.000000     C
    C   1.0     0.589582     0.955263     0.842393  Biso 1.000000     C
    C   1.0     0.058716     0.913978     0.162283  Biso 1.000000     C
    C   1.0     0.558721     0.913979     0.162282  Biso 1.000000     C
    C   1.0     0.442197     0.883993     0.619880  Biso 1.000000     C
    C   1.0     0.942202     0.883990     0.619882  Biso 1.000000     C
    C   1.0     0.233133     0.874261     0.613719  Biso 1.000000     C
    C   1.0     0.733136     0.874256     0.613719  Biso 1.000000     C
    C   1.0     0.360880     0.714217     0.544893  Biso 1.000000     C
    C   1.0     0.860891     0.714217     0.544892  Biso 1.000000     C
    C   1.0     0.111067     0.070437     0.618747  Biso 1.000000     C
    C   1.0     0.611071     0.070437     0.618747  Biso 1.000000     C
    C   1.0     0.278837     0.411377     0.151055  Biso 1.000000     C
    C   1.0     0.778843     0.411378     0.151052  Biso 1.000000     C
    C   1.0     0.027247     0.184914     0.000000  Biso 1.000000     C
    C   1.0     0.527248     0.184916     0.000000  Biso 1.000000     C
    C   1.0     0.132951     0.423892     0.914038  Biso 1.000000     C
    C   1.0     0.632956     0.423893     0.914039  Biso 1.000000     C
    C   1.0     0.316945     0.202323     0.992649  Biso 1.000000     C
    C   1.0     0.816948     0.202320     0.992651  Biso 1.000000     C
    C   1.0     0.481876     0.404476     0.147151  Biso 1.000000     C
    C   1.0     0.981879     0.404476     0.147148  Biso 1.000000     C
    C   1.0     0.410408     0.044760     0.157660  Biso 1.000000     C
    C   1.0     0.910411     0.044761     0.157660  Biso 1.000000     C
    C   1.0     0.441271     0.086045     0.837767  Biso 1.000000     C
    C   1.0     0.941275     0.086045     0.837767  Biso 1.000000     C
    C   1.0     0.057791     0.116034     0.380170  Biso 1.000000     C
    C   1.0     0.557794     0.116034     0.380169  Biso 1.000000     C
    C   1.0     0.266858     0.125765     0.386334  Biso 1.000000     C
    C   1.0     0.766863     0.125765     0.386335  Biso 1.000000     C
    C   1.0     0.139104     0.285808     0.455155  Biso 1.000000     C
    C   1.0     0.639112     0.285808     0.455153  Biso 1.000000     C
    C   1.0     0.388922     0.929585     0.381303  Biso 1.000000     C
    C   1.0     0.888926     0.929584     0.381302  Biso 1.000000     C
    C   1.0     0.254788     0.924169     0.182096  Biso 1.000000     C
    C   1.0     0.754791     0.924168     0.182096  Biso 1.000000     C
    C   1.0     0.268538     0.932036     0.092280  Biso 1.000000     C
    C   1.0     0.768544     0.932036     0.092279  Biso 1.000000     C
    C   1.0     0.243471     0.995399     0.048254  Biso 1.000000     C
    C   1.0     0.743476     0.995399     0.048254  Biso 1.000000     C
    C   1.0     0.206215     0.049454     0.099913  Biso 1.000000     C
    C   1.0     0.706219     0.049453     0.099912  Biso 1.000000     C
    C   1.0     0.193784     0.039173     0.189739  Biso 1.000000     C
    C   1.0     0.693790     0.039173     0.189738  Biso 1.000000     C
    C   1.0     0.197457     0.965088     0.324539  Biso 1.000000     C
    C   1.0     0.697462     0.965088     0.324539  Biso 1.000000     C
    C   1.0     0.245204     0.075859     0.817939  Biso 1.000000     C
    C   1.0     0.745208     0.075858     0.817939  Biso 1.000000     C
    C   1.0     0.231450     0.067991     0.907755  Biso 1.000000     C
    C   1.0     0.731456     0.067991     0.907755  Biso 1.000000     C
    C   1.0     0.256516     0.004626     0.951781  Biso 1.000000     C
    C   1.0     0.756522     0.004626     0.951780  Biso 1.000000     C
    C   1.0     0.293773     0.950573     0.900122  Biso 1.000000     C
    C   1.0     0.793777     0.950572     0.900121  Biso 1.000000     C
    C   1.0     0.306203     0.960853     0.810296  Biso 1.000000     C
    C   1.0     0.806209     0.960854     0.810296  Biso 1.000000     C
    C   1.0     0.302535     0.034940     0.675497  Biso 1.000000     C
    C   1.0     0.802540     0.034940     0.675496  Biso 1.000000     C
    C   1.0     0.175422     0.537044     0.388176  Biso 1.000000     C
    C   1.0     0.675426     0.537045     0.388176  Biso 1.000000     C
    C   1.0     0.177993     0.581055     0.456952  Biso 1.000000     C
    C   1.0     0.677998     0.581057     0.456951  Biso 1.000000     C
    C   1.0     0.110105     0.609854     0.501931  Biso 1.000000     C
    C   1.0     0.610109     0.609856     0.501930  Biso 1.000000     C
    C   1.0     0.041092     0.593634     0.471417  Biso 1.000000     C
    C   1.0     0.541097     0.593636     0.471415  Biso 1.000000     C
    C   1.0     0.041049     0.549598     0.402083  Biso 1.000000     C
    C   1.0     0.541054     0.549598     0.402083  Biso 1.000000     C
    C   1.0     0.179358     0.707503     0.685200  Biso 1.000000     C
    C   1.0     0.679362     0.707501     0.685201  Biso 1.000000     C
    C   1.0     0.179740     0.667935     0.611824  Biso 1.000000     C
    C   1.0     0.679745     0.667938     0.611820  Biso 1.000000     C
    C   1.0     0.110948     0.654637     0.578502  Biso 1.000000     C
    C   1.0     0.610952     0.654636     0.578503  Biso 1.000000     C
    C   1.0     0.043040     0.684531     0.621659  Biso 1.000000     C
    C   1.0     0.543045     0.684532     0.621658  Biso 1.000000     C
    C   1.0     0.044865     0.723418     0.695382  Biso 1.000000     C
    C   1.0     0.544870     0.723417     0.695382  Biso 1.000000     C
    C   1.0     0.106322     0.471214     0.291198  Biso 1.000000     C
    C   1.0     0.606328     0.471214     0.291197  Biso 1.000000     C
    C   1.0     0.113718     0.771294     0.808403  Biso 1.000000     C
    C   1.0     0.613723     0.771295     0.808404  Biso 1.000000     C
    C   1.0     0.324567     0.462984     0.611872  Biso 1.000000     C
    C   1.0     0.824571     0.462985     0.611871  Biso 1.000000     C
    C   1.0     0.321996     0.418978     0.543092  Biso 1.000000     C
    C   1.0     0.822000     0.418972     0.543097  Biso 1.000000     C
    C   1.0     0.389884     0.390175     0.498115  Biso 1.000000     C
    C   1.0     0.889888     0.390175     0.498116  Biso 1.000000     C
    C   1.0     0.458897     0.406394     0.528630  Biso 1.000000     C
    C   1.0     0.958901     0.406392     0.528632  Biso 1.000000     C
    C   1.0     0.458940     0.450433     0.597962  Biso 1.000000     C
    C   1.0     0.958945     0.450431     0.597964  Biso 1.000000     C
    C   1.0     0.320629     0.292524     0.314848  Biso 1.000000     C
    C   1.0     0.820634     0.292525     0.314847  Biso 1.000000     C
    C   1.0     0.320247     0.332095     0.388222  Biso 1.000000     C
    C   1.0     0.820252     0.332090     0.388226  Biso 1.000000     C
    C   1.0     0.389040     0.345393     0.421544  Biso 1.000000     C
    C   1.0     0.889045     0.345392     0.421545  Biso 1.000000     C
    C   1.0     0.456947     0.315497     0.378387  Biso 1.000000     C
    C   1.0     0.956952     0.315494     0.378390  Biso 1.000000     C
    C   1.0     0.455121     0.276610     0.304666  Biso 1.000000     C
    C   1.0     0.955127     0.276609     0.304667  Biso 1.000000     C
    C   1.0     0.393666     0.528816     0.708848  Biso 1.000000     C
    C   1.0     0.893672     0.528816     0.708848  Biso 1.000000     C
    C   1.0     0.386268     0.228731     0.191645  Biso 1.000000     C
    C   1.0     0.886273     0.228732     0.191646  Biso 1.000000     C
    N   1.0     0.268952     0.625002     0.861479  Biso 1.000000     N
    N   1.0     0.768958     0.625001     0.861477  Biso 1.000000     N
    N   1.0     0.421697     0.788019     0.973593  Biso 1.000000     N
    N   1.0     0.921704     0.788015     0.973589  Biso 1.000000     N
    N   1.0     0.360123     0.626742     0.039994  Biso 1.000000     N
    N   1.0     0.860127     0.626744     0.039996  Biso 1.000000     N
    N   1.0     0.241082     0.767037     0.983461  Biso 1.000000     N
    N   1.0     0.741087     0.767038     0.983461  Biso 1.000000     N
    N   1.0     0.464239     0.636249     0.861245  Biso 1.000000     N
    N   1.0     0.964239     0.636248     0.861244  Biso 1.000000     N
    N   1.0     0.091053     0.940114     0.917265  Biso 1.000000     N
    N   1.0     0.591058     0.940115     0.917264  Biso 1.000000     N
    N   1.0     0.044693     0.941196     0.229670  Biso 1.000000     N
    N   1.0     0.544697     0.941195     0.229669  Biso 1.000000     N
    N   1.0     0.486516     0.916570     0.649173  Biso 1.000000     N
    N   1.0     0.986519     0.916573     0.649169  Biso 1.000000     N
    N   1.0     0.174027     0.899679     0.643351  Biso 1.000000     N
    N   1.0     0.674034     0.899683     0.643350  Biso 1.000000     N
    N   1.0     0.363757     0.652507     0.539850  Biso 1.000000     N
    N   1.0     0.863753     0.652507     0.539852  Biso 1.000000     N
    N   1.0     0.134123     0.114165     0.569758  Biso 1.000000     N
    N   1.0     0.634128     0.114165     0.569758  Biso 1.000000     N
    N   1.0     0.231038     0.375021     0.138567  Biso 1.000000     N
    N   1.0     0.731043     0.375021     0.138570  Biso 1.000000     N
    N   1.0     0.078285     0.212013     0.026459  Biso 1.000000     N
    N   1.0     0.578292     0.212010     0.026456  Biso 1.000000     N
    N   1.0     0.139863     0.373283     0.960054  Biso 1.000000     N
    N   1.0     0.639869     0.373283     0.960053  Biso 1.000000     N
    N   1.0     0.258902     0.232982     0.016585  Biso 1.000000     N
    N   1.0     0.758909     0.232987     0.016584  Biso 1.000000     N
    N   1.0     0.035753     0.363777     0.138804  Biso 1.000000     N
    N   1.0     0.535756     0.363779     0.138801  Biso 1.000000     N
    N   1.0     0.408933     0.059913     0.082790  Biso 1.000000     N
    N   1.0     0.908938     0.059912     0.082789  Biso 1.000000     N
    N   1.0     0.455294     0.058827     0.770381  Biso 1.000000     N
    N   1.0     0.955298     0.058827     0.770380  Biso 1.000000     N
    N   1.0     0.013477     0.083450     0.350879  Biso 1.000000     N
    N   1.0     0.513481     0.083450     0.350877  Biso 1.000000     N
    N   1.0     0.325964     0.100346     0.356704  Biso 1.000000     N
    N   1.0     0.825968     0.100345     0.356703  Biso 1.000000     N
    N   1.0     0.136235     0.347518     0.460193  Biso 1.000000     N
    N   1.0     0.636235     0.347518     0.460194  Biso 1.000000     N
    N   1.0     0.365866     0.885857     0.430292  Biso 1.000000     N
    N   1.0     0.865871     0.885857     0.430294  Biso 1.000000     N
    N   1.0     0.217554     0.976998     0.229845  Biso 1.000000     N
    N   1.0     0.717561     0.976999     0.229845  Biso 1.000000     N
    N   1.0     0.282433     0.023028     0.770190  Biso 1.000000     N
    N   1.0     0.782440     0.023028     0.770189  Biso 1.000000     N
    N   1.0     0.107582     0.521270     0.361941  Biso 1.000000     N
    N   1.0     0.607587     0.521270     0.361941  Biso 1.000000     N
    N   1.0     0.112368     0.733935     0.726479  Biso 1.000000     N
    N   1.0     0.612373     0.733936     0.726478  Biso 1.000000     N
    N   1.0     0.392406     0.478759     0.638106  Biso 1.000000     N
    N   1.0     0.892411     0.478759     0.638105  Biso 1.000000     N
    N   1.0     0.387619     0.266090     0.273570  Biso 1.000000     N
    N   1.0     0.887624     0.266094     0.273569  Biso 1.000000     N
   Cl   1.0     0.343417     0.779737     0.769125  Biso 1.000000    Cl
   Cl   1.0     0.843424     0.779741     0.769128  Biso 1.000000    Cl
   Cl   1.0     0.131049     0.493296     0.672604  Biso 1.000000    Cl
   Cl   1.0     0.631052     0.493293     0.672606  Biso 1.000000    Cl
   Cl   1.0     0.156571     0.220286     0.230924  Biso 1.000000    Cl
   Cl   1.0     0.656577     0.220291     0.230925  Biso 1.000000    Cl
   Cl   1.0     0.368941     0.506732     0.327442  Biso 1.000000    Cl
   Cl   1.0     0.868940     0.506736     0.327440  Biso 1.000000    Cl
   Cd   1.0     0.350588     0.701707     0.916147  Biso 1.000000    Cd
   Cd   1.0     0.850592     0.701706     0.916148  Biso 1.000000    Cd
   Cd   1.0     0.071217     0.982006     0.702908  Biso 1.000000    Cd
   Cd   1.0     0.571220     0.982006     0.702907  Biso 1.000000    Cd
   Cd   1.0     0.124450     0.523110     0.834549  Biso 1.000000    Cd
   Cd   1.0     0.624453     0.523111     0.834550  Biso 1.000000    Cd
   Cd   1.0     0.349875     0.826976     0.571600  Biso 1.000000    Cd
   Cd   1.0     0.849880     0.826975     0.571600  Biso 1.000000    Cd
   Cd   1.0     0.073888     0.861826     0.036778  Biso 1.000000    Cd
   Cd   1.0     0.573891     0.861825     0.036777  Biso 1.000000    Cd
   Cd   1.0     0.149400     0.298318     0.083901  Biso 1.000000    Cd
   Cd   1.0     0.649405     0.298319     0.083901  Biso 1.000000    Cd
   Cd   1.0     0.428773     0.018018     0.297145  Biso 1.000000    Cd
   Cd   1.0     0.928776     0.018017     0.297144  Biso 1.000000    Cd
   Cd   1.0     0.375539     0.476915     0.165498  Biso 1.000000    Cd
   Cd   1.0     0.875543     0.476915     0.165497  Biso 1.000000    Cd
   Cd   1.0     0.150114     0.173049     0.428450  Biso 1.000000    Cd
   Cd   1.0     0.650119     0.173049     0.428449  Biso 1.000000    Cd
   Cd   1.0     0.426101     0.138198     0.963273  Biso 1.000000    Cd
   Cd   1.0     0.926104     0.138197     0.963273  Biso 1.000000    Cd
