#======================================================================

# CRYSTAL DATA

#----------------------------------------------------------------------

data_VESTA_phase_1


_pd_phase_name                         MOF
_cell_length_a                         15.64900
_cell_length_b                         13.13400
_cell_length_c                         16.32300
_cell_angle_alpha                      113.68200
_cell_angle_beta                       103.73300
_cell_angle_gamma                      90.03300
_symmetry_space_group_name_H-M         "P 1"
_symmetry_Int_Tables_number            1

loop_
_symmetry_equiv_pos_as_xyz
   "x, y, z"

loop_
   _atom_site_label
   _atom_site_occupancy
   _atom_site_fract_x
   _atom_site_fract_y
   _atom_site_fract_z
   _atom_site_adp_type
   _atom_site_B_iso_or_equiv
   _atom_site_type_symbol
    H   1.0     0.078093     0.455397     0.384864  Biso 1.000000     H
    H   1.0     0.578066     0.455405     0.384941  Biso 1.000000     H
    H   1.0     0.255384     0.238878     0.650482  Biso 1.000000     H
    H   1.0     0.755360     0.238926     0.650568  Biso 1.000000     H
    H   1.0     0.135439     0.544044     0.202444  Biso 1.000000     H
    H   1.0     0.635386     0.544105     0.202486  Biso 1.000000     H
    H   1.0     0.178728     0.482103     0.528174  Biso 1.000000     H
    H   1.0     0.678662     0.482123     0.528240  Biso 1.000000     H
    H   1.0     0.126482     0.070528     0.417939  Biso 1.000000     H
    H   1.0     0.626504     0.070541     0.418014  Biso 1.000000     H
    H   1.0     0.431789     0.335272     0.855089  Biso 1.000000     H
    H   1.0     0.931805     0.335297     0.855055  Biso 1.000000     H
    H   1.0     0.171431     0.070661     0.614603  Biso 1.000000     H
    H   1.0     0.671409     0.070702     0.614642  Biso 1.000000     H
    H   1.0     0.494893     0.588162     0.349465  Biso 1.000000     H
    H   1.0     0.994870     0.588164     0.349367  Biso 1.000000     H
    H   1.0     0.114926     0.341634     0.797436  Biso 1.000000     H
    H   1.0     0.614749     0.341711     0.797433  Biso 1.000000     H
    H   1.0     0.070157     0.953902     0.471482  Biso 1.000000     H
    H   1.0     0.570136     0.953894     0.471501  Biso 1.000000     H
    H   1.0     0.124237     0.652817     0.581887  Biso 1.000000     H
    H   1.0     0.624209     0.652892     0.582007  Biso 1.000000     H
    H   1.0     0.318459     0.480056     0.144916  Biso 1.000000     H
    H   1.0     0.818290     0.480122     0.144926  Biso 1.000000     H
    H   1.0     0.421893     0.544595     0.615085  Biso 1.000000     H
    H   1.0     0.921862     0.544601     0.615165  Biso 1.000000     H
    H   1.0     0.244603     0.761075     0.349460  Biso 1.000000     H
    H   1.0     0.744579     0.761133     0.349556  Biso 1.000000     H
    H   1.0     0.364568     0.455900     0.797546  Biso 1.000000     H
    H   1.0     0.864511     0.455953     0.797590  Biso 1.000000     H
    H   1.0     0.321288     0.517881     0.471792  Biso 1.000000     H
    H   1.0     0.821219     0.517903     0.471860  Biso 1.000000     H
    H   1.0     0.373465     0.929459     0.582012  Biso 1.000000     H
    H   1.0     0.873484     0.929476     0.582099  Biso 1.000000     H
    H   1.0     0.068143     0.664697     0.144981  Biso 1.000000     H
    H   1.0     0.568168     0.664730     0.144942  Biso 1.000000     H
    H   1.0     0.328556     0.929299     0.385381  Biso 1.000000     H
    H   1.0     0.828532     0.929345     0.385426  Biso 1.000000     H
    H   1.0     0.005085     0.411841     0.650661  Biso 1.000000     H
    H   1.0     0.505067     0.411842     0.650555  Biso 1.000000     H
    H   1.0     0.385189     0.658298     0.202591  Biso 1.000000     H
    H   1.0     0.884994     0.658382     0.202595  Biso 1.000000     H
    H   1.0     0.429829     0.046109     0.528520  Biso 1.000000     H
    H   1.0     0.929804     0.046103     0.528543  Biso 1.000000     H
    H   1.0     0.375743     0.347111     0.418016  Biso 1.000000     H
    H   1.0     0.875715     0.347189     0.418142  Biso 1.000000     H
    H   1.0     0.181643     0.519892     0.855102  Biso 1.000000     H
    H   1.0     0.681479     0.519957     0.855111  Biso 1.000000     H
    C   1.0     0.104740     0.209762     0.381304  Biso 1.000000     C
    C   1.0     0.604732     0.209766     0.381371  Biso 1.000000     C
    C   1.0     0.118487     0.327109     0.412708  Biso 1.000000     C
    C   1.0     0.618459     0.327114     0.412773  Biso 1.000000     C
    C   1.0     0.165815     0.391854     0.503356  Biso 1.000000     C
    C   1.0     0.665769     0.391871     0.503424  Biso 1.000000     C
    C   1.0     0.200487     0.342874     0.564659  Biso 1.000000     C
    C   1.0     0.700448     0.342903     0.564732  Biso 1.000000     C
    C   1.0     0.185185     0.225711     0.533888  Biso 1.000000     C
    C   1.0     0.685170     0.225739     0.533963  Biso 1.000000     C
    C   1.0     0.137366     0.160994     0.442905  Biso 1.000000     C
    C   1.0     0.637370     0.161009     0.442977  Biso 1.000000     C
    C   1.0     0.058582     0.134613     0.282713  Biso 1.000000     C
    C   1.0     0.558590     0.134603     0.282780  Biso 1.000000     C
    C   1.0     0.256551     0.413587     0.658901  Biso 1.000000     C
    C   1.0     0.756488     0.413634     0.658979  Biso 1.000000     C
    C   1.0     0.008328     0.390796     0.995658  Biso 1.000000     C
    C   1.0     0.508280     0.390813     0.995695  Biso 1.000000     C
    C   1.0     0.047873     0.484866     0.078644  Biso 1.000000     C
    C   1.0     0.547849     0.484898     0.078662  Biso 1.000000     C
    C   1.0     0.461245     0.408402     0.918770  Biso 1.000000     C
    C   1.0     0.961244     0.408413     0.918754  Biso 1.000000     C
    C   1.0     0.019010     0.272803     0.983815  Biso 1.000000     C
    C   1.0     0.518945     0.272831     0.983893  Biso 1.000000     C
    C   1.0     0.145199     0.828680     0.618425  Biso 1.000000     C
    C   1.0     0.645170     0.828747     0.618501  Biso 1.000000     C
    C   1.0     0.130999     0.914537     0.586917  Biso 1.000000     C
    C   1.0     0.630964     0.914581     0.586969  Biso 1.000000     C
    C   1.0     0.083495     0.888496     0.496293  Biso 1.000000     C
    C   1.0     0.583475     0.888508     0.496335  Biso 1.000000     C
    C   1.0     0.049196     0.778132     0.435058  Biso 1.000000     C
    C   1.0     0.549178     0.778135     0.435123  Biso 1.000000     C
    C   1.0     0.065111     0.691798     0.465841  Biso 1.000000     C
    C   1.0     0.565091     0.691823     0.465933  Biso 1.000000     C
    C   1.0     0.112973     0.718228     0.556832  Biso 1.000000     C
    C   1.0     0.612942     0.718286     0.556934  Biso 1.000000     C
    C   1.0     0.191507     0.852018     0.716969  Biso 1.000000     C
    C   1.0     0.691474     0.852132     0.717056  Biso 1.000000     C
    C   1.0     0.492761     0.754483     0.340999  Biso 1.000000     C
    C   1.0     0.992721     0.754518     0.340952  Biso 1.000000     C
    C   1.0     0.241931     0.395095     0.004299  Biso 1.000000     C
    C   1.0     0.741765     0.395159     0.004307  Biso 1.000000     C
    C   1.0     0.202303     0.406258     0.921345  Biso 1.000000     C
    C   1.0     0.702113     0.406329     0.921361  Biso 1.000000     C
    C   1.0     0.288911     0.489539     0.081242  Biso 1.000000     C
    C   1.0     0.788738     0.489604     0.081252  Biso 1.000000     C
    C   1.0     0.231558     0.288828     0.016031  Biso 1.000000     C
    C   1.0     0.731425     0.288873     0.016017  Biso 1.000000     C
    C   1.0     0.395231     0.790235     0.618658  Biso 1.000000     C
    C   1.0     0.895220     0.790240     0.618733  Biso 1.000000     C
    C   1.0     0.381501     0.672887     0.587257  Biso 1.000000     C
    C   1.0     0.881469     0.672892     0.587327  Biso 1.000000     C
    C   1.0     0.334187     0.608131     0.496607  Biso 1.000000     C
    C   1.0     0.834138     0.608151     0.496679  Biso 1.000000     C
    C   1.0     0.299510     0.657099     0.435298  Biso 1.000000     C
    C   1.0     0.799470     0.657133     0.435377  Biso 1.000000     C
    C   1.0     0.314794     0.774262     0.466065  Biso 1.000000     C
    C   1.0     0.814778     0.774296     0.466149  Biso 1.000000     C
    C   1.0     0.362596     0.838992     0.557051  Biso 1.000000     C
    C   1.0     0.862598     0.839010     0.557133  Biso 1.000000     C
    C   1.0     0.441374     0.865397     0.717249  Biso 1.000000     C
    C   1.0     0.941379     0.865383     0.717326  Biso 1.000000     C
    C   1.0     0.243467     0.586369     0.341052  Biso 1.000000     C
    C   1.0     0.743404     0.586424     0.341134  Biso 1.000000     C
    C   1.0     0.491677     0.609187     0.004336  Biso 1.000000     C
    C   1.0     0.991621     0.609197     0.004378  Biso 1.000000     C
    C   1.0     0.452107     0.515103     0.921368  Biso 1.000000     C
    C   1.0     0.952075     0.515128     0.921392  Biso 1.000000     C
    C   1.0     0.038704     0.591581     0.081282  Biso 1.000000     C
    C   1.0     0.538711     0.591599     0.081261  Biso 1.000000     C
    C   1.0     0.481015     0.727168     0.016134  Biso 1.000000     C
    C   1.0     0.980941     0.727188     0.016217  Biso 1.000000     C
    C   1.0     0.354788     0.171255     0.381520  Biso 1.000000     C
    C   1.0     0.854758     0.171325     0.381602  Biso 1.000000     C
    C   1.0     0.368997     0.085421     0.413053  Biso 1.000000     C
    C   1.0     0.868960     0.085468     0.413109  Biso 1.000000     C
    C   1.0     0.416488     0.111495     0.503687  Biso 1.000000     C
    C   1.0     0.916464     0.111509     0.503733  Biso 1.000000     C
    C   1.0     0.450783     0.221868     0.564898  Biso 1.000000     C
    C   1.0     0.950762     0.221873     0.564968  Biso 1.000000     C
    C   1.0     0.434867     0.308180     0.534088  Biso 1.000000     C
    C   1.0     0.934846     0.308208     0.534186  Biso 1.000000     C
    C   1.0     0.387013     0.281716     0.443088  Biso 1.000000     C
    C   1.0     0.886981     0.281778     0.443195  Biso 1.000000     C
    C   1.0     0.308483     0.147865     0.282965  Biso 1.000000     C
    C   1.0     0.808452     0.147985     0.283057  Biso 1.000000     C
    C   1.0     0.007237     0.245485     0.659073  Biso 1.000000     C
    C   1.0     0.507202     0.245519     0.659021  Biso 1.000000     C
    C   1.0     0.258175     0.604854     0.995719  Biso 1.000000     C
    C   1.0     0.758001     0.604920     0.995729  Biso 1.000000     C
    C   1.0     0.297823     0.593684     0.078666  Biso 1.000000     C
    C   1.0     0.797623     0.593759     0.078685  Biso 1.000000     C
    C   1.0     0.211196     0.510410     0.918776  Biso 1.000000     C
    C   1.0     0.711025     0.510474     0.918785  Biso 1.000000     C
    C   1.0     0.268524     0.711136     0.984003  Biso 1.000000     C
    C   1.0     0.768381     0.711183     0.983991  Biso 1.000000     C
    O   1.0     0.066385     0.161223     0.218107  Biso 1.000000     O
    O   1.0     0.566379     0.161216     0.218172  Biso 1.000000     O
    O   1.0     0.014800     0.045205     0.269654  Biso 1.000000     O
    O   1.0     0.514831     0.045180     0.269723  Biso 1.000000     O
    O   1.0     0.293363     0.364263     0.710374  Biso 1.000000     O
    O   1.0     0.793309     0.364321     0.710460  Biso 1.000000     O
    O   1.0     0.267704     0.518764     0.684115  Biso 1.000000     O
    O   1.0     0.767617     0.518812     0.684188  Biso 1.000000     O
    O   1.0     0.085463     0.374885     0.351405  Biso 1.000000     O
    O   1.0     0.585427     0.374891     0.351472  Biso 1.000000     O
    O   1.0     0.217988     0.175025     0.591688  Biso 1.000000     O
    O   1.0     0.717980     0.175064     0.591770  Biso 1.000000     O
    O   1.0     0.040215     0.250670     0.054683  Biso 1.000000     O
    O   1.0     0.540103     0.250741     0.054784  Biso 1.000000     O
    O   1.0     0.507911     0.198421     0.901451  Biso 1.000000     O
    O   1.0     0.000000     0.198426     0.901359  Biso 1.000000     O
    O   1.0     0.096452     0.472182     0.155368  Biso 1.000000     O
    O   1.0     0.596410     0.472240     0.155405  Biso 1.000000     O
    O   1.0     0.184911     0.943790     0.781586  Biso 1.000000     O
    O   1.0     0.684865     0.943912     0.781655  Biso 1.000000     O
    O   1.0     0.234191     0.774942     0.730031  Biso 1.000000     O
    O   1.0     0.734190     0.775090     0.730141  Biso 1.000000     O
    O   1.0     0.455862     0.653700     0.289739  Biso 1.000000     O
    O   1.0     0.955816     0.653743     0.289674  Biso 1.000000     O
    O   1.0     0.481387     0.834382     0.315709  Biso 1.000000     O
    O   1.0     0.981340     0.834445     0.315697  Biso 1.000000     O
    O   1.0     0.163586     0.023695     0.648045  Biso 1.000000     O
    O   1.0     0.663544     0.023744     0.648085  Biso 1.000000     O
    O   1.0     0.032853     0.583207     0.407971  Biso 1.000000     O
    O   1.0     0.532835     0.583225     0.408083  Biso 1.000000     O
    O   1.0     0.210944     0.195909     0.945109  Biso 1.000000     O
    O   1.0     0.710906     0.195954     0.945091  Biso 1.000000     O
    O   1.0     0.242258     0.296715     0.098420  Biso 1.000000     O
    O   1.0     0.742059     0.296743     0.098394  Biso 1.000000     O
    O   1.0     0.153798     0.316882     0.844640  Biso 1.000000     O
    O   1.0     0.653549     0.316971     0.844686  Biso 1.000000     O
    O   1.0     0.433586     0.838780     0.781856  Biso 1.000000     O
    O   1.0     0.933577     0.838766     0.781928  Biso 1.000000     O
    O   1.0     0.485133     0.954822     0.730309  Biso 1.000000     O
    O   1.0     0.985163     0.954793     0.730391  Biso 1.000000     O
    O   1.0     0.206644     0.635683     0.289573  Biso 1.000000     O
    O   1.0     0.706590     0.635752     0.289665  Biso 1.000000     O
    O   1.0     0.232338     0.481191     0.315842  Biso 1.000000     O
    O   1.0     0.732251     0.481245     0.315915  Biso 1.000000     O
    O   1.0     0.414534     0.625109     0.648556  Biso 1.000000     O
    O   1.0     0.914494     0.625113     0.648627  Biso 1.000000     O
    O   1.0     0.281989     0.824934     0.408255  Biso 1.000000     O
    O   1.0     0.781980     0.824983     0.408348  Biso 1.000000     O
    O   1.0     0.459853     0.749252     0.945241  Biso 1.000000     O
    O   1.0     0.959731     0.749313     0.945346  Biso 1.000000     O
    O   1.0    -0.007970     0.801571     0.098672  Biso 1.000000     O
    O   1.0     0.492055     0.801582     0.098575  Biso 1.000000     O
    O   1.0     0.403547     0.527762     0.844626  Biso 1.000000     O
    O   1.0     0.903498     0.527814     0.844669  Biso 1.000000     O
    O   1.0     0.315101     0.056089     0.218368  Biso 1.000000     O
    O   1.0     0.815055     0.056215     0.218442  Biso 1.000000     O
    O   1.0     0.265759     0.224900     0.269877  Biso 1.000000     O
    O   1.0     0.765764     0.225057     0.269992  Biso 1.000000     O
    O   1.0     0.044138     0.346263     0.710353  Biso 1.000000     O
    O   1.0     0.544098     0.346304     0.710282  Biso 1.000000     O
    O   1.0     0.018623     0.165556     0.684325  Biso 1.000000     O
    O   1.0     0.518580     0.165619     0.684309  Biso 1.000000     O
    O   1.0     0.336420     0.976257     0.351938  Biso 1.000000     O
    O   1.0     0.836375     0.976309     0.351982  Biso 1.000000     O
    O   1.0     0.467125     0.416778     0.591937  Biso 1.000000     O
    O   1.0     0.967104     0.416798     0.592056  Biso 1.000000     O
    O   1.0     0.289062     0.804055     0.054927  Biso 1.000000     O
    O   1.0     0.789021     0.804103     0.054909  Biso 1.000000     O
    O   1.0     0.257882     0.703260     0.901624  Biso 1.000000     O
    O   1.0     0.757661     0.703291     0.901597  Biso 1.000000     O
    O   1.0     0.346381     0.683042     0.155346  Biso 1.000000     O
    O   1.0     0.846109     0.683138     0.155402  Biso 1.000000     O
   La   1.0     0.149830     0.303304     0.198207  Biso 1.000000    La
   La   1.0     0.649763     0.303359     0.198278  Biso 1.000000    La
   La   1.0     0.100848     0.105207     0.801928  Biso 1.000000    La
   La   1.0     0.600757     0.105276     0.801939  Biso 1.000000    La
   La   1.0     0.350193     0.696646     0.801751  Biso 1.000000    La
   La   1.0     0.850116     0.696695     0.801826  Biso 1.000000    La
   La   1.0     0.399204     0.894726     0.198083  Biso 1.000000    La
   La   1.0     0.899109     0.894796     0.198099  Biso 1.000000    La
