#======================================================================

# CRYSTAL DATA

#----------------------------------------------------------------------

data_VESTA_phase_1


_pd_phase_name                         MOF
_cell_length_a                         14.55900
_cell_length_b                         18.46300
_cell_length_c                         15.52100
_cell_angle_alpha                      100.71300
_cell_angle_beta                       95.55800
_cell_angle_gamma                      90.88100
_symmetry_space_group_name_H-M         "P 1"
_symmetry_Int_Tables_number            1

loop_
_symmetry_equiv_pos_as_xyz
   "x, y, z"

loop_
   _atom_site_label
   _atom_site_occupancy
   _atom_site_fract_x
   _atom_site_fract_y
   _atom_site_fract_z
   _atom_site_adp_type
   _atom_site_B_iso_or_equiv
   _atom_site_type_symbol
    H   1.0     0.141295     0.347736     0.206071  Biso 1.000000     H
    H   1.0     0.141083     0.847654     0.206186  Biso 1.000000     H
    H   1.0     0.641898     0.347777     0.206251  Biso 1.000000     H
    H   1.0     0.641725     0.847653     0.206385  Biso 1.000000     H
    H   1.0     0.163034     0.379271     0.062564  Biso 1.000000     H
    H   1.0     0.162942     0.879230     0.062733  Biso 1.000000     H
    H   1.0     0.663752     0.379298     0.062754  Biso 1.000000     H
    H   1.0     0.663699     0.879225     0.062948  Biso 1.000000     H
    H   1.0     0.096517     0.150542     0.944483  Biso 1.000000     H
    H   1.0     0.096598     0.650490     0.944571  Biso 1.000000     H
    H   1.0     0.596100     0.150773     0.944515  Biso 1.000000     H
    H   1.0     0.596137     0.650708     0.944597  Biso 1.000000     H
    H   1.0     0.080012     0.128423     0.094385  Biso 1.000000     H
    H   1.0     0.079900     0.628352     0.094435  Biso 1.000000     H
    H   1.0     0.579628     0.128628     0.094424  Biso 1.000000     H
    H   1.0     0.579530     0.628524     0.094474  Biso 1.000000     H
    H   1.0     0.157688     0.403243     0.940224  Biso 1.000000     H
    H   1.0     0.158087     0.903211     0.940473  Biso 1.000000     H
    H   1.0     0.657248     0.403414     0.940264  Biso 1.000000     H
    H   1.0     0.657608     0.903363     0.940555  Biso 1.000000     H
    H   1.0     0.194402     0.424793     0.794244  Biso 1.000000     H
    H   1.0     0.194828     0.924776     0.794493  Biso 1.000000     H
    H   1.0     0.693906     0.425030     0.794289  Biso 1.000000     H
    H   1.0     0.694339     0.925002     0.794586  Biso 1.000000     H
    H   1.0     0.169663     0.200236     0.689033  Biso 1.000000     H
    H   1.0     0.169736     0.700274     0.689192  Biso 1.000000     H
    H   1.0     0.670154     0.200407     0.689244  Biso 1.000000     H
    H   1.0     0.670101     0.700454     0.689389  Biso 1.000000     H
    H   1.0     0.139621     0.168886     0.827427  Biso 1.000000     H
    H   1.0     0.139543     0.668892     0.827492  Biso 1.000000     H
    H   1.0     0.640271     0.169012     0.827636  Biso 1.000000     H
    H   1.0     0.640123     0.669007     0.827697  Biso 1.000000     H
    H   1.0     0.021886     0.055552     0.264335  Biso 1.000000     H
    H   1.0     0.015635     0.557175     0.264507  Biso 1.000000     H
    H   1.0     0.520171     0.056125     0.264418  Biso 1.000000     H
    H   1.0     0.514536     0.557581     0.264600  Biso 1.000000     H
    H   1.0     0.470367     0.461910     0.344211  Biso 1.000000     H
    H   1.0     0.476901     0.960166     0.343929  Biso 1.000000     H
    H   1.0     0.971722     0.461472     0.344158  Biso 1.000000     H
    H   1.0     0.979001     0.959521     0.343921  Biso 1.000000     H
    H   1.0     0.050595     0.116420     0.586921  Biso 1.000000     H
    H   1.0     0.057698     0.614532     0.587181  Biso 1.000000     H
    H   1.0     0.552856     0.115852     0.587088  Biso 1.000000     H
    H   1.0     0.559135     0.614070     0.587237  Biso 1.000000     H
    H   1.0     0.089546     0.207003     0.495827  Biso 1.000000     H
    H   1.0     0.094317     0.705751     0.496049  Biso 1.000000     H
    H   1.0     0.591195     0.206633     0.496037  Biso 1.000000     H
    H   1.0     0.595411     0.705458     0.496175  Biso 1.000000     H
    H   1.0     0.357869     0.151581     0.793872  Biso 1.000000     H
    H   1.0     0.358059     0.651663     0.793685  Biso 1.000000     H
    H   1.0     0.858534     0.151559     0.793961  Biso 1.000000     H
    H   1.0     0.858882     0.651691     0.793762  Biso 1.000000     H
    H   1.0     0.335997     0.120295     0.937479  Biso 1.000000     H
    H   1.0     0.336044     0.620299     0.937206  Biso 1.000000     H
    H   1.0     0.836792     0.120208     0.937555  Biso 1.000000     H
    H   1.0     0.836900     0.620279     0.937250  Biso 1.000000     H
    H   1.0     0.403663     0.348908     0.055272  Biso 1.000000     H
    H   1.0     0.403596     0.848894     0.055192  Biso 1.000000     H
    H   1.0     0.903182     0.349030     0.055273  Biso 1.000000     H
    H   1.0     0.902959     0.849122     0.055137  Biso 1.000000     H
    H   1.0     0.420165     0.370802     0.905274  Biso 1.000000     H
    H   1.0     0.420286     0.870859     0.905248  Biso 1.000000     H
    H   1.0     0.919687     0.370955     0.905297  Biso 1.000000     H
    H   1.0     0.919753     0.871096     0.905223  Biso 1.000000     H
    H   1.0     0.342077     0.096323     0.059923  Biso 1.000000     H
    H   1.0     0.341662     0.596288     0.059504  Biso 1.000000     H
    H   1.0     0.841908     0.096333     0.059878  Biso 1.000000     H
    H   1.0     0.841485     0.596382     0.059404  Biso 1.000000     H
    H   1.0     0.305538     0.074815     0.205930  Biso 1.000000     H
    H   1.0     0.304985     0.574690     0.205452  Biso 1.000000     H
    H   1.0     0.805328     0.074823     0.205868  Biso 1.000000     H
    H   1.0     0.804788     0.574765     0.205338  Biso 1.000000     H
    H   1.0     0.330179     0.299437     0.310966  Biso 1.000000     H
    H   1.0     0.330031     0.799220     0.310777  Biso 1.000000     H
    H   1.0     0.830372     0.299408     0.311022  Biso 1.000000     H
    H   1.0     0.830225     0.799250     0.310798  Biso 1.000000     H
    H   1.0     0.359924     0.330712     0.172517  Biso 1.000000     H
    H   1.0     0.359966     0.830617     0.172435  Biso 1.000000     H
    H   1.0     0.860339     0.330689     0.172641  Biso 1.000000     H
    H   1.0     0.860392     0.830669     0.172533  Biso 1.000000     H
    H   1.0     0.476840     0.443880     0.735484  Biso 1.000000     H
    H   1.0     0.482686     0.942467     0.735434  Biso 1.000000     H
    H   1.0     0.978046     0.443693     0.735572  Biso 1.000000     H
    H   1.0     0.984349     0.942134     0.735422  Biso 1.000000     H
    H   1.0     0.028136     0.037963     0.655874  Biso 1.000000     H
    H   1.0     0.020832     0.539882     0.656127  Biso 1.000000     H
    H   1.0     0.526143     0.038450     0.656004  Biso 1.000000     H
    H   1.0     0.519438     0.540171     0.656093  Biso 1.000000     H
    H   1.0     0.450582     0.382848     0.412969  Biso 1.000000     H
    H   1.0     0.444263     0.884497     0.412743  Biso 1.000000     H
    H   1.0     0.949192     0.383179     0.412985  Biso 1.000000     H
    H   1.0     0.942041     0.885087     0.412761  Biso 1.000000     H
    H   1.0     0.411410     0.292164     0.503814  Biso 1.000000     H
    H   1.0     0.407164     0.793297     0.503657  Biso 1.000000     H
    H   1.0     0.910372     0.292458     0.503903  Biso 1.000000     H
    H   1.0     0.905528     0.793756     0.503755  Biso 1.000000     H
    C   1.0     0.183008     0.355138     0.411942  Biso 1.000000     C
    C   1.0     0.182910     0.855100     0.411698  Biso 1.000000     C
    C   1.0     0.683072     0.355262     0.412244  Biso 1.000000     C
    C   1.0     0.682841     0.855200     0.411802  Biso 1.000000     C
    C   1.0     0.220274     0.431484     0.456148  Biso 1.000000     C
    C   1.0     0.220249     0.931407     0.456001  Biso 1.000000     C
    C   1.0     0.720387     0.431622     0.456323  Biso 1.000000     C
    C   1.0     0.720159     0.931522     0.456050  Biso 1.000000     C
    C   1.0     0.253583     0.013099     0.590239  Biso 1.000000     C
    C   1.0     0.253595     0.513305     0.590310  Biso 1.000000     C
    C   1.0     0.753542     0.013232     0.590271  Biso 1.000000     C
    C   1.0     0.753735     0.513508     0.590430  Biso 1.000000     C
    C   1.0     0.245805     0.027104     0.689311  Biso 1.000000     C
    C   1.0     0.245609     0.527505     0.689353  Biso 1.000000     C
    C   1.0     0.745733     0.027256     0.689332  Biso 1.000000     C
    C   1.0     0.745705     0.527847     0.689468  Biso 1.000000     C
    C   1.0     0.130949     0.305756     0.146235  Biso 1.000000     C
    C   1.0     0.130779     0.805687     0.146337  Biso 1.000000     C
    C   1.0     0.631359     0.305831     0.146395  Biso 1.000000     C
    C   1.0     0.631222     0.805728     0.146511  Biso 1.000000     C
    C   1.0     0.142624     0.322642     0.064279  Biso 1.000000     C
    C   1.0     0.142535     0.822592     0.064411  Biso 1.000000     C
    C   1.0     0.643063     0.322722     0.064443  Biso 1.000000     C
    C   1.0     0.643001     0.822642     0.064592  Biso 1.000000     C
    C   1.0     0.130845     0.267737     0.987833  Biso 1.000000     C
    C   1.0     0.130842     0.767697     0.987956  Biso 1.000000     C
    C   1.0     0.631007     0.267869     0.987961  Biso 1.000000     C
    C   1.0     0.630982     0.767808     0.988095  Biso 1.000000     C
    C   1.0     0.107372     0.196434     0.000061  Biso 1.000000     C
    C   1.0     0.107365     0.696384     0.000154  Biso 1.000000     C
    C   1.0     0.607222     0.196612     0.000135  Biso 1.000000     C
    C   1.0     0.607200     0.696539     0.000232  Biso 1.000000     C
    C   1.0     0.097411     0.183635     0.084157  Biso 1.000000     C
    C   1.0     0.097302     0.683571     0.084229  Biso 1.000000     C
    C   1.0     0.597264     0.183806     0.084231  Biso 1.000000     C
    C   1.0     0.597166     0.683708     0.084304  Biso 1.000000     C
    C   1.0     0.144487     0.283609     0.899665  Biso 1.000000     C
    C   1.0     0.144589     0.783594     0.899821  Biso 1.000000     C
    C   1.0     0.644622     0.283755     0.899793  Biso 1.000000     C
    C   1.0     0.644683     0.783723     0.899964  Biso 1.000000     C
    C   1.0     0.158955     0.356134     0.886536  Biso 1.000000     C
    C   1.0     0.159224     0.856116     0.886747  Biso 1.000000     C
    C   1.0     0.658762     0.356307     0.886612  Biso 1.000000     C
    C   1.0     0.658997     0.856276     0.886858  Biso 1.000000     C
    C   1.0     0.177532     0.369388     0.804717  Biso 1.000000     C
    C   1.0     0.177826     0.869385     0.804940  Biso 1.000000     C
    C   1.0     0.677294     0.369589     0.804790  Biso 1.000000     C
    C   1.0     0.677548     0.869581     0.805053  Biso 1.000000     C
    C   1.0     0.164707     0.244598     0.745177  Biso 1.000000     C
    C   1.0     0.164791     0.744630     0.745330  Biso 1.000000     C
    C   1.0     0.665013     0.244766     0.745347  Biso 1.000000     C
    C   1.0     0.665022     0.744800     0.745506  Biso 1.000000     C
    C   1.0     0.146881     0.227310     0.825567  Biso 1.000000     C
    C   1.0     0.146910     0.727320     0.825694  Biso 1.000000     C
    C   1.0     0.647265     0.227451     0.825744  Biso 1.000000     C
    C   1.0     0.647232     0.727451     0.825875  Biso 1.000000     C
    C   1.0     0.026037     0.067420     0.335883  Biso 1.000000     C
    C   1.0     0.022558     0.568351     0.336151  Biso 1.000000     C
    C   1.0     0.525131     0.067768     0.336006  Biso 1.000000     C
    C   1.0     0.521975     0.568584     0.336248  Biso 1.000000     C
    C   1.0     0.502136     0.013434     0.381774  Biso 1.000000     C
    C   1.0     0.498952     0.514255     0.381999  Biso 1.000000     C
    C   1.0     0.000000     0.013102     0.381700  Biso 1.000000     C
    C   1.0     0.999577     0.514038     0.381946  Biso 1.000000     C
    C   1.0     0.011177     0.028263     0.474234  Biso 1.000000     C
    C   1.0     0.011266     0.528263     0.474496  Biso 1.000000     C
    C   1.0     0.511291     0.028276     0.474330  Biso 1.000000     C
    C   1.0     0.511314     0.528257     0.474535  Biso 1.000000     C
    C   1.0     0.042131     0.100074     0.515549  Biso 1.000000     C
    C   1.0     0.045475     0.599209     0.515827  Biso 1.000000     C
    C   1.0     0.543245     0.099823     0.515699  Biso 1.000000     C
    C   1.0     0.546187     0.599004     0.515903  Biso 1.000000     C
    C   1.0     0.063376     0.151672     0.465188  Biso 1.000000     C
    C   1.0     0.066025     0.651012     0.465472  Biso 1.000000     C
    C   1.0     0.564338     0.151496     0.465374  Biso 1.000000     C
    C   1.0     0.566655     0.650863     0.465588  Biso 1.000000     C
    C   1.0     0.317130     0.143514     0.588354  Biso 1.000000     C
    C   1.0     0.317269     0.643646     0.588256  Biso 1.000000     C
    C   1.0     0.817225     0.143596     0.588338  Biso 1.000000     C
    C   1.0     0.817339     0.643859     0.588183  Biso 1.000000     C
    C   1.0     0.279348     0.067456     0.543738  Biso 1.000000     C
    C   1.0     0.279453     0.567575     0.543722  Biso 1.000000     C
    C   1.0     0.779451     0.067533     0.543756  Biso 1.000000     C
    C   1.0     0.779638     0.567724     0.543780  Biso 1.000000     C
    C   1.0     0.245942     0.485814     0.409540  Biso 1.000000     C
    C   1.0     0.245975     0.985795     0.409493  Biso 1.000000     C
    C   1.0     0.746120     0.485884     0.409653  Biso 1.000000     C
    C   1.0     0.746021     0.985852     0.409524  Biso 1.000000     C
    C   1.0     0.253840     0.471795     0.310490  Biso 1.000000     C
    C   1.0     0.254117     0.971732     0.310483  Biso 1.000000     C
    C   1.0     0.753961     0.471852     0.310586  Biso 1.000000     C
    C   1.0     0.754159     0.971797     0.310516  Biso 1.000000     C
    C   1.0     0.368407     0.193598     0.853665  Biso 1.000000     C
    C   1.0     0.368552     0.693657     0.853500  Biso 1.000000     C
    C   1.0     0.868850     0.193604     0.853743  Biso 1.000000     C
    C   1.0     0.869095     0.693724     0.853556  Biso 1.000000     C
    C   1.0     0.356685     0.176847     0.935683  Biso 1.000000     C
    C   1.0     0.356741     0.676862     0.935474  Biso 1.000000     C
    C   1.0     0.857180     0.176823     0.935753  Biso 1.000000     C
    C   1.0     0.857278     0.676909     0.935516  Biso 1.000000     C
    C   1.0     0.368760     0.231775     0.012097  Biso 1.000000     C
    C   1.0     0.368743     0.731765     0.011915  Biso 1.000000     C
    C   1.0     0.868916     0.231792     0.012144  Biso 1.000000     C
    C   1.0     0.868877     0.731864     0.011924  Biso 1.000000     C
    C   1.0     0.392538     0.302989     0.999742  Biso 1.000000     C
    C   1.0     0.392541     0.802995     0.999634  Biso 1.000000     C
    C   1.0     0.892361     0.303067     0.999771  Biso 1.000000     C
    C   1.0     0.892292     0.803162     0.999619  Biso 1.000000     C
    C   1.0     0.402511     0.315659     0.915577  Biso 1.000000     C
    C   1.0     0.402616     0.815706     0.915505  Biso 1.000000     C
    C   1.0     0.902320     0.315761     0.915614  Biso 1.000000     C
    C   1.0     0.902414     0.815886     0.915505  Biso 1.000000     C
    C   1.0     0.355158     0.215970     0.100332  Biso 1.000000     C
    C   1.0     0.355017     0.715912     0.100097  Biso 1.000000     C
    C   1.0     0.855304     0.215966     0.100369  Biso 1.000000     C
    C   1.0     0.855147     0.715986     0.100094  Biso 1.000000     C
    C   1.0     0.340782     0.143459     0.113574  Biso 1.000000     C
    C   1.0     0.340464     0.643385     0.113215  Biso 1.000000     C
    C   1.0     0.840749     0.143461     0.113557  Biso 1.000000     C
    C   1.0     0.840421     0.643465     0.113151  Biso 1.000000     C
    C   1.0     0.322308     0.130235     0.195448  Biso 1.000000     C
    C   1.0     0.321904     0.630105     0.195034  Biso 1.000000     C
    C   1.0     0.822225     0.130229     0.195412  Biso 1.000000     C
    C   1.0     0.821812     0.630170     0.194950  Biso 1.000000     C
    C   1.0     0.335062     0.255021     0.254867  Biso 1.000000     C
    C   1.0     0.334907     0.754851     0.254634  Biso 1.000000     C
    C   1.0     0.835239     0.254998     0.254913  Biso 1.000000     C
    C   1.0     0.835063     0.754892     0.254638  Biso 1.000000     C
    C   1.0     0.352758     0.272284     0.174412  Biso 1.000000     C
    C   1.0     0.352676     0.772179     0.174233  Biso 1.000000     C
    C   1.0     0.853012     0.272265     0.174484  Biso 1.000000     C
    C   1.0     0.852936     0.772232     0.174273  Biso 1.000000     C
    C   1.0     0.473232     0.431971     0.663961  Biso 1.000000     C
    C   1.0     0.476512     0.931175     0.663802  Biso 1.000000     C
    C   1.0     0.973875     0.431890     0.664019  Biso 1.000000     C
    C   1.0     0.977378     0.931022     0.663776  Biso 1.000000     C
    C   1.0    -0.003211     0.486295     0.618295  Biso 1.000000     C
    C   1.0     0.000328     0.985403     0.618055  Biso 1.000000     C
    C   1.0     0.496125     0.486404     0.618271  Biso 1.000000     C
    C   1.0     0.499420     0.985597     0.618121  Biso 1.000000     C
    C   1.0     0.488722     0.471199     0.525753  Biso 1.000000     C
    C   1.0     0.488733     0.971220     0.525559  Biso 1.000000     C
    C   1.0     0.988685     0.471232     0.525759  Biso 1.000000     C
    C   1.0     0.988602     0.971249     0.525506  Biso 1.000000     C
    C   1.0     0.458401     0.399260     0.484337  Biso 1.000000     C
    C   1.0     0.455472     0.900039     0.484125  Biso 1.000000     C
    C   1.0     0.957726     0.399443     0.484365  Biso 1.000000     C
    C   1.0     0.954351     0.900334     0.484116  Biso 1.000000     C
    C   1.0     0.437095     0.347592     0.534580  Biso 1.000000     C
    C   1.0     0.434796     0.848196     0.534376  Biso 1.000000     C
    C   1.0     0.936523     0.347770     0.534637  Biso 1.000000     C
    C   1.0     0.933840     0.848470     0.534399  Biso 1.000000     C
    N   1.0     0.225942     0.445620     0.544872  Biso 1.000000     N
    N   1.0     0.225902     0.945457     0.544717  Biso 1.000000     N
    N   1.0     0.726032     0.445818     0.545052  Biso 1.000000     N
    N   1.0     0.725775     0.945609     0.544765  Biso 1.000000     N
    N   1.0     0.108473     0.236949     0.157181  Biso 1.000000     N
    N   1.0     0.108287     0.736878     0.157262  Biso 1.000000     N
    N   1.0     0.608600     0.237068     0.157298  Biso 1.000000     N
    N   1.0     0.608429     0.736962     0.157381  Biso 1.000000     N
    N   1.0     0.180937     0.314258     0.734156  Biso 1.000000     N
    N   1.0     0.181121     0.814276     0.734334  Biso 1.000000     N
    N   1.0     0.680966     0.314454     0.734283  Biso 1.000000     N
    N   1.0     0.681082     0.814475     0.734485  Biso 1.000000     N
    N   1.0     0.055610     0.136315     0.375953  Biso 1.000000     N
    N   1.0     0.055031     0.636499     0.376227  Biso 1.000000     N
    N   1.0     0.555623     0.136425     0.376123  Biso 1.000000     N
    N   1.0     0.555049     0.636559     0.376353  Biso 1.000000     N
    N   1.0     0.273581     0.053496     0.455015  Biso 1.000000     N
    N   1.0     0.273685     0.553511     0.455006  Biso 1.000000     N
    N   1.0     0.773728     0.053532     0.455039  Biso 1.000000     N
    N   1.0     0.773864     0.553599     0.455069  Biso 1.000000     N
    N   1.0     0.391197     0.262304     0.842593  Biso 1.000000     N
    N   1.0     0.391368     0.762375     0.842494  Biso 1.000000     N
    N   1.0     0.891298     0.262373     0.842653  Biso 1.000000     N
    N   1.0     0.891535     0.762511     0.842529  Biso 1.000000     N
    N   1.0     0.318928     0.185375     0.266015  Biso 1.000000     N
    N   1.0     0.318637     0.685200     0.265666  Biso 1.000000     N
    N   1.0     0.818943     0.185360     0.266005  Biso 1.000000     N
    N   1.0     0.818637     0.685248     0.265614  Biso 1.000000     N
    N   1.0     0.444260     0.362950     0.623799  Biso 1.000000     N
    N   1.0     0.444891     0.862819     0.623624  Biso 1.000000     N
    N   1.0     0.944317     0.363005     0.623871  Biso 1.000000     N
    N   1.0     0.944901     0.862888     0.623636  Biso 1.000000     N
    O   1.0     0.129139     0.350258     0.341870  Biso 1.000000     O
    O   1.0     0.128932     0.850336     0.341717  Biso 1.000000     O
    O   1.0     0.629306     0.350294     0.342096  Biso 1.000000     O
    O   1.0     0.628917     0.850364     0.341777  Biso 1.000000     O
    O   1.0     0.206689     0.302013     0.450067  Biso 1.000000     O
    O   1.0     0.206729     0.801876     0.449595  Biso 1.000000     O
    O   1.0     0.706680     0.302203     0.450519  Biso 1.000000     O
    O   1.0     0.706678     0.802034     0.449787  Biso 1.000000     O
    O   1.0     0.289079     0.485859     0.733788  Biso 1.000000     O
    O   1.0     0.289113     0.985169     0.733453  Biso 1.000000     O
    O   1.0     0.789397     0.486473     0.734094  Biso 1.000000     O
    O   1.0     0.789054     0.985344     0.733494  Biso 1.000000     O
    O   1.0     0.191537     0.077740     0.714951  Biso 1.000000     O
    O   1.0     0.191177     0.578053     0.714756  Biso 1.000000     O
    O   1.0     0.691446     0.077888     0.714924  Biso 1.000000     O
    O   1.0     0.690949     0.578203     0.714672  Biso 1.000000     O
    O   1.0     0.371517     0.147663     0.657956  Biso 1.000000     O
    O   1.0     0.371667     0.647850     0.657856  Biso 1.000000     O
    O   1.0     0.871545     0.147803     0.657994  Biso 1.000000     O
    O   1.0     0.871665     0.648216     0.657864  Biso 1.000000     O
    O   1.0     0.293344     0.197106     0.551090  Biso 1.000000     O
    O   1.0     0.293438     0.697171     0.550895  Biso 1.000000     O
    O   1.0     0.793455     0.197148     0.551000  Biso 1.000000     O
    O   1.0     0.793402     0.697305     0.550738  Biso 1.000000     O
    O   1.0     0.210271     0.013061     0.265920  Biso 1.000000     O
    O   1.0     0.209948     0.513202     0.266087  Biso 1.000000     O
    O   1.0     0.710333     0.013161     0.265987  Biso 1.000000     O
    O   1.0     0.710133     0.513316     0.266208  Biso 1.000000     O
    O   1.0     0.308907     0.421711     0.285115  Biso 1.000000     O
    O   1.0     0.309169     0.921613     0.285250  Biso 1.000000     O
    O   1.0     0.808899     0.421687     0.285153  Biso 1.000000     O
    O   1.0     0.809137     0.921628     0.285256  Biso 1.000000     O
   Ag   1.0     0.223269     0.344533     0.612203  Biso 1.000000    Ag
   Ag   1.0     0.223271     0.844537     0.612229  Biso 1.000000    Ag
   Ag   1.0     0.723208     0.344720     0.612367  Biso 1.000000    Ag
   Ag   1.0     0.723115     0.844842     0.612440  Biso 1.000000    Ag
   Ag   1.0     0.098556     0.216920     0.297499  Biso 1.000000    Ag
   Ag   1.0     0.098167     0.716915     0.297606  Biso 1.000000    Ag
   Ag   1.0     0.598681     0.217009     0.297667  Biso 1.000000    Ag
   Ag   1.0     0.598249     0.716952     0.297717  Biso 1.000000    Ag
   Ag   1.0     0.276519     0.155111     0.388272  Biso 1.000000    Ag
   Ag   1.0     0.276704     0.654665     0.387841  Biso 1.000000    Ag
   Ag   1.0     0.776789     0.155004     0.388211  Biso 1.000000    Ag
   Ag   1.0     0.776688     0.654626     0.387711  Biso 1.000000    Ag
   Ag   1.0     0.401182     0.281863     0.701932  Biso 1.000000    Ag
   Ag   1.0     0.401581     0.781977     0.701909  Biso 1.000000    Ag
   Ag   1.0     0.901225     0.281961     0.702018  Biso 1.000000    Ag
   Ag   1.0     0.901719     0.782140     0.701997  Biso 1.000000    Ag
