#======================================================================

# CRYSTAL DATA

#----------------------------------------------------------------------

data_VESTA_phase_1


_pd_phase_name                         MOF
_cell_length_a                         15.40400
_cell_length_b                         15.37800
_cell_length_c                         22.94600
_cell_angle_alpha                      90.00000
_cell_angle_beta                       89.96600
_cell_angle_gamma                      89.98300
_symmetry_space_group_name_H-M         "P 1"
_symmetry_Int_Tables_number            1

loop_
_symmetry_equiv_pos_as_xyz
   "x, y, z"

loop_
   _atom_site_label
   _atom_site_occupancy
   _atom_site_fract_x
   _atom_site_fract_y
   _atom_site_fract_z
   _atom_site_adp_type
   _atom_site_B_iso_or_equiv
   _atom_site_type_symbol
    H   1.0     0.989928     0.740711     0.045151  Biso 1.000000     H
    H   1.0     0.033994     0.633714     0.874578  Biso 1.000000     H
    H   1.0     0.192854     0.629918     0.897473  Biso 1.000000     H
    H   1.0     0.322296     0.650591     0.916443  Biso 1.000000     H
    H   1.0     0.474938     0.663100     0.951153  Biso 1.000000     H
    H   1.0     0.375893     0.731157     0.120661  Biso 1.000000     H
    H   1.0     0.568220     0.793070     0.916967  Biso 1.000000     H
    H   1.0     0.010020     0.259016     0.545280  Biso 1.000000     H
    H   1.0     0.966353     0.366417     0.374805  Biso 1.000000     H
    H   1.0     0.807453     0.370409     0.397716  Biso 1.000000     H
    H   1.0     0.678089     0.350009     0.416682  Biso 1.000000     H
    H   1.0     0.525310     0.337423     0.451275  Biso 1.000000     H
    H   1.0     0.623811     0.268826     0.620758  Biso 1.000000     H
    H   1.0     0.432164     0.207330     0.416560  Biso 1.000000     H
    H   1.0     0.759058     0.488308     0.795738  Biso 1.000000     H
    H   1.0     0.865600     0.530750     0.624883  Biso 1.000000     H
    H   1.0     0.870348     0.690005     0.647387  Biso 1.000000     H
    H   1.0     0.851177     0.820084     0.666354  Biso 1.000000     H
    H   1.0     0.837733     0.973219     0.700534  Biso 1.000000     H
    H   1.0     0.768551     0.875189     0.870095  Biso 1.000000     H
    H   1.0     0.705886     0.065659     0.665143  Biso 1.000000     H
    H   1.0     0.240446     0.511684     0.295829  Biso 1.000000     H
    H   1.0     0.134120     0.469181     0.125006  Biso 1.000000     H
    H   1.0     0.129278     0.309947     0.147556  Biso 1.000000     H
    H   1.0     0.148051     0.179842     0.166605  Biso 1.000000     H
    H   1.0     0.161729     0.026711     0.200756  Biso 1.000000     H
    H   1.0     0.231524     0.124798     0.370133  Biso 1.000000     H
    H   1.0     0.294136     0.934245     0.165097  Biso 1.000000     H
    H   1.0     0.510018     0.240730     0.704864  Biso 1.000000     H
    H   1.0     0.466030     0.133676     0.875429  Biso 1.000000     H
    H   1.0     0.307177     0.129863     0.852522  Biso 1.000000     H
    H   1.0     0.177730     0.150534     0.833556  Biso 1.000000     H
    H   1.0     0.025080     0.163047     0.798846  Biso 1.000000     H
    H   1.0     0.124084     0.231140     0.629336  Biso 1.000000     H
    H   1.0     0.931734     0.293043     0.833067  Biso 1.000000     H
    H   1.0     0.489979     0.759058     0.204716  Biso 1.000000     H
    H   1.0     0.533564     0.866388     0.375211  Biso 1.000000     H
    H   1.0     0.692462     0.870385     0.352301  Biso 1.000000     H
    H   1.0     0.821830     0.850010     0.333327  Biso 1.000000     H
    H   1.0     0.974618     0.837422     0.298736  Biso 1.000000     H
    H   1.0     0.876161     0.768842     0.129249  Biso 1.000000     H
    H   1.0     0.067862     0.707360     0.333442  Biso 1.000000     H
    H   1.0     0.740947     0.988264     0.954289  Biso 1.000000     H
    H   1.0     0.634354     0.030740     0.125124  Biso 1.000000     H
    H   1.0     0.629601     0.189997     0.102622  Biso 1.000000     H
    H   1.0     0.648779     0.320080     0.083655  Biso 1.000000     H
    H   1.0     0.662230     0.473204     0.049471  Biso 1.000000     H
    H   1.0     0.731452     0.375126     0.879927  Biso 1.000000     H
    H   1.0     0.793941     0.565487     0.084902  Biso 1.000000     H
    H   1.0     0.259538     0.011689     0.454167  Biso 1.000000     H
    H   1.0     0.365874     0.969158     0.624992  Biso 1.000000     H
    H   1.0     0.370715     0.809920     0.602451  Biso 1.000000     H
    H   1.0     0.351966     0.679822     0.583399  Biso 1.000000     H
    H   1.0     0.338272     0.526693     0.549262  Biso 1.000000     H
    H   1.0     0.268480     0.624797     0.379879  Biso 1.000000     H
    H   1.0     0.205724     0.434256     0.584955  Biso 1.000000     H
    C   1.0     0.032811     0.715910     0.011291  Biso 1.000000     C
    C   1.0     0.999958     0.688062     0.957721  Biso 1.000000     C
    C   1.0     0.058674     0.656530     0.916343  Biso 1.000000     C
    C   1.0     0.146737     0.654751     0.929309  Biso 1.000000     C
    C   1.0     0.175267     0.684296     0.983729  Biso 1.000000     C
    C   1.0     0.267993     0.685778     0.000000  Biso 1.000000     C
    C   1.0     0.335502     0.667795     0.961566  Biso 1.000000     C
    C   1.0     0.420756     0.674652     0.980644  Biso 1.000000     C
    C   1.0     0.437867     0.698218     0.038429  Biso 1.000000     C
    C   1.0     0.366870     0.713019     0.075153  Biso 1.000000     C
    C   1.0     0.903923     0.691547     0.945227  Biso 1.000000     C
    C   1.0     0.530704     0.711402     0.057966  Biso 1.000000     C
    C   1.0     0.611823     0.753876     0.889017  Biso 1.000000     C
    C   1.0     0.967233     0.283947     0.511439  Biso 1.000000     C
    C   1.0     0.000164     0.311896     0.457885  Biso 1.000000     C
    C   1.0     0.941547     0.343571     0.416547  Biso 1.000000     C
    C   1.0     0.853479     0.345453     0.429527  Biso 1.000000     C
    C   1.0     0.824851     0.315834     0.483926  Biso 1.000000     C
    C   1.0     0.732091     0.314450     0.500856  Biso 1.000000     C
    C   1.0     0.664708     0.332634     0.461761  Biso 1.000000     C
    C   1.0     0.579396     0.325752     0.480782  Biso 1.000000     C
    C   1.0     0.562120     0.301981     0.538528  Biso 1.000000     C
    C   1.0     0.633006     0.287063     0.575275  Biso 1.000000     C
    C   1.0     0.096177     0.308405     0.445319  Biso 1.000000     C
    C   1.0     0.469243     0.288687     0.558007  Biso 1.000000     C
    C   1.0     0.388333     0.246343     0.388689  Biso 1.000000     C
    C   1.0     0.783990     0.530862     0.761736  Biso 1.000000     C
    C   1.0     0.811277     0.497496     0.708132  Biso 1.000000     C
    C   1.0     0.843089     0.555876     0.666628  Biso 1.000000     C
    C   1.0     0.845486     0.644157     0.679405  Biso 1.000000     C
    C   1.0     0.816454     0.673215     0.733843  Biso 1.000000     C
    C   1.0     0.815224     0.766241     0.750545  Biso 1.000000     C
    C   1.0     0.833418     0.833620     0.711346  Biso 1.000000     C
    C   1.0     0.826033     0.919142     0.730135  Biso 1.000000     C
    C   1.0     0.801621     0.936688     0.787736  Biso 1.000000     C
    C   1.0     0.787035     0.865852     0.824670  Biso 1.000000     C
    C   1.0     0.807014     0.401238     0.695674  Biso 1.000000     C
    C   1.0     0.787292     0.029736     0.806801  Biso 1.000000     C
    C   1.0     0.745266     0.110162     0.637974  Biso 1.000000     C
    C   1.0     0.215565     0.469124     0.261834  Biso 1.000000     C
    C   1.0     0.188351     0.502482     0.208233  Biso 1.000000     C
    C   1.0     0.156543     0.444085     0.166762  Biso 1.000000     C
    C   1.0     0.154117     0.355805     0.179557  Biso 1.000000     C
    C   1.0     0.183142     0.326751     0.233974  Biso 1.000000     C
    C   1.0     0.184413     0.233717     0.250683  Biso 1.000000     C
    C   1.0     0.166042     0.166325     0.211543  Biso 1.000000     C
    C   1.0     0.173511     0.080806     0.230321  Biso 1.000000     C
    C   1.0     0.198158     0.063274     0.287858  Biso 1.000000     C
    C   1.0     0.212881     0.134119     0.324749  Biso 1.000000     C
    C   1.0     0.192780     0.598738     0.195739  Biso 1.000000     C
    C   1.0     0.212591     0.970238     0.306897  Biso 1.000000     C
    C   1.0     0.254744     0.889760     0.137952  Biso 1.000000     C
    C   1.0     0.467171     0.215914     0.738718  Biso 1.000000     C
    C   1.0     0.500016     0.188056     0.792296  Biso 1.000000     C
    C   1.0     0.441340     0.156500     0.833665  Biso 1.000000     C
    C   1.0     0.353281     0.154710     0.820692  Biso 1.000000     C
    C   1.0     0.324739     0.184264     0.766274  Biso 1.000000     C
    C   1.0     0.232012     0.185739     0.749338  Biso 1.000000     C
    C   1.0     0.164514     0.167747     0.788435  Biso 1.000000     C
    C   1.0     0.079257     0.174604     0.769357  Biso 1.000000     C
    C   1.0     0.062129     0.198187     0.711566  Biso 1.000000     C
    C   1.0     0.133116     0.212994     0.674842  Biso 1.000000     C
    C   1.0     0.596048     0.191555     0.804797  Biso 1.000000     C
    C   1.0     0.969262     0.211374     0.692033  Biso 1.000000     C
    C   1.0     0.888144     0.253855     0.861014  Biso 1.000000     C
    C   1.0     0.532728     0.783973     0.238562  Biso 1.000000     C
    C   1.0     0.499809     0.811903     0.292120  Biso 1.000000     C
    C   1.0     0.558385     0.843559     0.333465  Biso 1.000000     C
    C   1.0     0.646451     0.845444     0.320484  Biso 1.000000     C
    C   1.0     0.675093     0.815841     0.266081  Biso 1.000000     C
    C   1.0     0.767851     0.814455     0.249151  Biso 1.000000     C
    C   1.0     0.835223     0.832635     0.288249  Biso 1.000000     C
    C   1.0     0.920537     0.825756     0.269228  Biso 1.000000     C
    C   1.0     0.937828     0.801993     0.211481  Biso 1.000000     C
    C   1.0     0.866952     0.787073     0.174733  Biso 1.000000     C
    C   1.0     0.403802     0.808405     0.304687  Biso 1.000000     C
    C   1.0     0.030735     0.788700     0.192002  Biso 1.000000     C
    C   1.0     0.111673     0.746364     0.361317  Biso 1.000000     C
    C   1.0     0.715997     0.030817     0.988288  Biso 1.000000     C
    C   1.0     0.688702     0.997471     0.041880  Biso 1.000000     C
    C   1.0     0.656872     0.055855     0.083382  Biso 1.000000     C
    C   1.0     0.654472     0.144137     0.070606  Biso 1.000000     C
    C   1.0     0.683517     0.173182     0.016171  Biso 1.000000     C
    C   1.0     0.684749     0.266209    -0.000531  Biso 1.000000     C
    C   1.0     0.666550     0.333602     0.038664  Biso 1.000000     C
    C   1.0     0.673935     0.419119     0.019871  Biso 1.000000     C
    C   1.0     0.698368     0.436658     0.962281  Biso 1.000000     C
    C   1.0     0.712957     0.365809     0.925351  Biso 1.000000     C
    C   1.0     0.692957     0.901211     0.054345  Biso 1.000000     C
    C   1.0     0.712700     0.529716     0.943217  Biso 1.000000     C
    C   1.0     0.754614     0.610056     0.112074  Biso 1.000000     C
    C   1.0     0.284427     0.969133     0.488164  Biso 1.000000     C
    C   1.0     0.311641     0.002471     0.541762  Biso 1.000000     C
    C   1.0     0.343450     0.944072     0.583237  Biso 1.000000     C
    C   1.0     0.345880     0.855788     0.570447  Biso 1.000000     C
    C   1.0     0.316856     0.826743     0.516031  Biso 1.000000     C
    C   1.0     0.315592     0.733707     0.499322  Biso 1.000000     C
    C   1.0     0.333967     0.666308     0.538463  Biso 1.000000     C
    C   1.0     0.326495     0.580790     0.519692  Biso 1.000000     C
    C   1.0     0.301837     0.563264     0.462158  Biso 1.000000     C
    C   1.0     0.287122     0.634115     0.425262  Biso 1.000000     C
    C   1.0     0.307225     0.098734     0.554253  Biso 1.000000     C
    C   1.0     0.287393     0.470220     0.443125  Biso 1.000000     C
    C   1.0     0.245163     0.389748     0.612069  Biso 1.000000     C
    N   1.0     0.117855     0.713818     0.024007  Biso 1.000000     N
    N   1.0     0.284503     0.707606     0.056571  Biso 1.000000     N
    N   1.0     0.882168     0.286119     0.524159  Biso 1.000000     N
    N   1.0     0.715429     0.292470     0.556736  Biso 1.000000     N
    N   1.0     0.786894     0.616091     0.774330  Biso 1.000000     N
    N   1.0     0.793087     0.783243     0.806358  Biso 1.000000     N
    N   1.0     0.212704     0.383892     0.274424  Biso 1.000000     N
    N   1.0     0.206776     0.216722     0.306438  Biso 1.000000     N
    N   1.0     0.382131     0.213808     0.725993  Biso 1.000000     N
    N   1.0     0.215486     0.207581     0.693425  Biso 1.000000     N
    N   1.0     0.617791     0.786143     0.225843  Biso 1.000000     N
    N   1.0     0.784527     0.792475     0.193271  Biso 1.000000     N
    N   1.0     0.713093     0.116049     0.975696  Biso 1.000000     N
    N   1.0     0.706899     0.283206     0.943667  Biso 1.000000     N
    N   1.0     0.287289     0.883897     0.475581  Biso 1.000000     N
    N   1.0     0.293227     0.716717     0.443568  Biso 1.000000     N
    O   1.0     0.856018     0.722259     0.984864  Biso 1.000000     O
    O   1.0     0.881696     0.662948     0.895225  Biso 1.000000     O
    O   1.0     0.585479     0.715112     0.017098  Biso 1.000000     O
    O   1.0     0.544588     0.718924     0.112525  Biso 1.000000     O
    O   1.0     0.689045     0.740632     0.911923  Biso 1.000000     O
    O   1.0     0.589480     0.726449     0.840878  Biso 1.000000     O
    O   1.0     0.144099     0.277667     0.484894  Biso 1.000000     O
    O   1.0     0.118356     0.337054     0.395305  Biso 1.000000     O
    O   1.0     0.414552     0.284953     0.517132  Biso 1.000000     O
    O   1.0     0.455293     0.281083     0.612567  Biso 1.000000     O
    O   1.0     0.311166     0.259433     0.411783  Biso 1.000000     O
    O   1.0     0.410432     0.273706     0.340462  Biso 1.000000     O
    O   1.0     0.774260     0.353827     0.734868  Biso 1.000000     O
    O   1.0     0.837108     0.378459     0.646192  Biso 1.000000     O
    O   1.0     0.784839     0.084060     0.765516  Biso 1.000000     O
    O   1.0     0.777647     0.044148     0.861101  Biso 1.000000     O
    O   1.0     0.757485     0.187203     0.661469  Biso 1.000000     O
    O   1.0     0.773915     0.088886     0.589895  Biso 1.000000     O
    O   1.0     0.225575     0.646115     0.234914  Biso 1.000000     O
    O   1.0     0.162825     0.621534     0.146248  Biso 1.000000     O
    O   1.0     0.215098     0.915924     0.265601  Biso 1.000000     O
    O   1.0     0.222290     0.955839     0.361186  Biso 1.000000     O
    O   1.0     0.242518     0.812701     0.161432  Biso 1.000000     O
    O   1.0     0.226077     0.911086     0.089909  Biso 1.000000     O
    O   1.0     0.643938     0.222278     0.765166  Biso 1.000000     O
    O   1.0     0.618285     0.162950     0.854799  Biso 1.000000     O
    O   1.0     0.914485     0.215090     0.732900  Biso 1.000000     O
    O   1.0     0.955373     0.218898     0.637474  Biso 1.000000     O
    O   1.0     0.810933     0.240617     0.838102  Biso 1.000000     O
    O   1.0     0.910494     0.226433     0.909157  Biso 1.000000     O
    O   1.0     0.355893     0.777669     0.265113  Biso 1.000000     O
    O   1.0     0.381619     0.837048     0.354704  Biso 1.000000     O
    O   1.0     0.085426     0.784959     0.232878  Biso 1.000000     O
    O   1.0     0.044685     0.781099     0.137442  Biso 1.000000     O
    O   1.0     0.188835     0.759449     0.338225  Biso 1.000000     O
    O   1.0     0.089558     0.773719     0.409547  Biso 1.000000     O
    O   1.0     0.725711     0.853767     0.015159  Biso 1.000000     O
    O   1.0     0.662857     0.878462     0.103828  Biso 1.000000     O
    O   1.0     0.715154     0.584030     0.984507  Biso 1.000000     O
    O   1.0     0.722350     0.544140     0.888919  Biso 1.000000     O
    O   1.0     0.742365     0.687078     0.088552  Biso 1.000000     O
    O   1.0     0.726035     0.588858     0.160182  Biso 1.000000     O
    O   1.0     0.274427     0.146127     0.515077  Biso 1.000000     O
    O   1.0     0.337191     0.121524     0.603737  Biso 1.000000     O
    O   1.0     0.284881     0.415914     0.484425  Biso 1.000000     O
    O   1.0     0.277689     0.455821     0.388837  Biso 1.000000     O
    O   1.0     0.257325     0.312671     0.588591  Biso 1.000000     O
    O   1.0     0.273925     0.411070     0.660086  Biso 1.000000     O
   Zn   1.0     0.762313     0.666409     0.857922  Biso 1.000000    Zn
   Zn   1.0     0.237698     0.333576     0.357910  Biso 1.000000    Zn
   Zn   1.0     0.833225     0.259320     0.607736  Biso 1.000000    Zn
   Zn   1.0     0.166761     0.740645     0.107675  Biso 1.000000    Zn
   Zn   1.0     0.737670     0.166402     0.892099  Biso 1.000000    Zn
   Zn   1.0     0.262286     0.833577     0.392098  Biso 1.000000    Zn
   Zn   1.0     0.666736     0.759324     0.142276  Biso 1.000000    Zn
   Zn   1.0     0.333223     0.240642     0.642323  Biso 1.000000    Zn
   Zn   1.0     0.721722     0.718962     0.000114  Biso 1.000000    Zn
   Zn   1.0     0.278331     0.280985     0.500099  Biso 1.000000    Zn
   Zn   1.0     0.778241     0.218996     0.749899  Biso 1.000000    Zn
   Zn   1.0     0.221653     0.780986     0.249911  Biso 1.000000    Zn
