#======================================================================

# CRYSTAL DATA

#----------------------------------------------------------------------

data_VESTA_phase_1


_pd_phase_name                         MOF
_cell_length_a                         14.23000
_cell_length_b                         15.18200
_cell_length_c                         15.16300
_cell_angle_alpha                      69.11900
_cell_angle_beta                       72.17900
_cell_angle_gamma                      107.93700
_symmetry_space_group_name_H-M         "P 1"
_symmetry_Int_Tables_number            1

loop_
_symmetry_equiv_pos_as_xyz
   "x, y, z"

loop_
   _atom_site_label
   _atom_site_occupancy
   _atom_site_fract_x
   _atom_site_fract_y
   _atom_site_fract_z
   _atom_site_adp_type
   _atom_site_B_iso_or_equiv
   _atom_site_type_symbol
    H   1.0     0.261480     0.799818     0.687076  Biso 1.000000     H
    H   1.0     0.319561     0.711329     0.710452  Biso 1.000000     H
    H   1.0     0.193271     0.622025     0.909864  Biso 1.000000     H
    H   1.0     0.291164     0.759000     0.849937  Biso 1.000000     H
    H   1.0     0.151988     0.748863     0.008072  Biso 1.000000     H
    H   1.0     0.058350     0.616639     0.047903  Biso 1.000000     H
    H   1.0     0.964667     0.716328     0.107381  Biso 1.000000     H
    H   1.0     0.017665     0.811498     0.971297  Biso 1.000000     H
    H   1.0     0.941693     0.680655     0.517719  Biso 1.000000     H
    H   1.0     0.024208     0.703408     0.581931  Biso 1.000000     H
    H   1.0     0.099930     0.903351     0.467729  Biso 1.000000     H
    H   1.0     0.133562     0.838861     0.393793  Biso 1.000000     H
    H   1.0     0.152346    -0.004338     0.242294  Biso 1.000000     H
    H   1.0     0.105251     0.041948     0.331100  Biso 1.000000     H
    H   1.0     0.066221     0.099354     0.174437  Biso 1.000000     H
    H   1.0     0.980709     0.963150     0.218962  Biso 1.000000     H
    H   1.0     0.462048     0.518771     0.801990  Biso 1.000000     H
    H   1.0     0.607663     0.584130     0.715726  Biso 1.000000     H
    H   1.0     0.573557     0.471665     0.627406  Biso 1.000000     H
    H   1.0     0.533741     0.396417     0.765620  Biso 1.000000     H
    H   1.0     0.407702     0.247364     0.753730  Biso 1.000000     H
    H   1.0     0.445547     0.337940     0.620296  Biso 1.000000     H
    H   1.0     0.254234     0.178934     0.718898  Biso 1.000000     H
    H   1.0     0.212007     0.221132     0.812896  Biso 1.000000     H
    H   1.0     0.738517     0.200182     0.312935  Biso 1.000000     H
    H   1.0     0.680441     0.288674     0.289554  Biso 1.000000     H
    H   1.0     0.806740     0.377976     0.090144  Biso 1.000000     H
    H   1.0     0.708841     0.241004     0.150070  Biso 1.000000     H
    H   1.0     0.848014     0.251125     0.991946  Biso 1.000000     H
    H   1.0     0.941649     0.383350     0.952112  Biso 1.000000     H
    H   1.0     0.035337     0.283664     0.892637  Biso 1.000000     H
    H   1.0     0.982341     0.188496     0.028720  Biso 1.000000     H
    H   1.0     0.058313     0.319349     0.482298  Biso 1.000000     H
    H   1.0     0.975797     0.296598     0.418087  Biso 1.000000     H
    H   1.0     0.900072     0.096655     0.532288  Biso 1.000000     H
    H   1.0     0.866443     0.161144     0.606226  Biso 1.000000     H
    H   1.0     0.847656     0.000000     0.757720  Biso 1.000000     H
    H   1.0     0.894754     0.958055     0.668912  Biso 1.000000     H
    H   1.0     0.933780     0.900647     0.825579  Biso 1.000000     H
    H   1.0     0.019293     0.036850     0.781053  Biso 1.000000     H
    H   1.0     0.537957     0.481230     0.198023  Biso 1.000000     H
    H   1.0     0.392342     0.415870     0.284286  Biso 1.000000     H
    H   1.0     0.426447     0.528337     0.372605  Biso 1.000000     H
    H   1.0     0.466264     0.603585     0.234390  Biso 1.000000     H
    H   1.0     0.592297     0.752634     0.246291  Biso 1.000000     H
    H   1.0     0.554455     0.662055     0.379722  Biso 1.000000     H
    H   1.0     0.745766     0.821066     0.281118  Biso 1.000000     H
    H   1.0     0.787994     0.778870     0.187119  Biso 1.000000     H
    C   1.0     0.151129     0.639437     0.741388  Biso 1.000000     C
    C   1.0     0.243780     0.718981     0.741332  Biso 1.000000     C
    C   1.0     0.216701     0.704408     0.852623  Biso 1.000000     C
    C   1.0     0.085527     0.701647    -0.003928  Biso 1.000000     C
    C   1.0     0.988411     0.727029     0.026721  Biso 1.000000     C
    C   1.0     0.888137     0.658128     0.026181  Biso 1.000000     C
    C   1.0     0.890545     0.740573     0.620241  Biso 1.000000     C
    C   1.0    -0.019990     0.735705     0.542647  Biso 1.000000     C
    C   1.0     0.064137     0.845070     0.444484  Biso 1.000000     C
    C   1.0     0.076937    -0.011963     0.300992  Biso 1.000000     C
    C   1.0     0.009807     0.020011     0.245647  Biso 1.000000     C
    C   1.0     0.912457     0.024019     0.314465  Biso 1.000000     C
    C   1.0     0.511567     0.622519     0.640192  Biso 1.000000     C
    C   1.0     0.525236     0.544735     0.721946  Biso 1.000000     C
    C   1.0     0.514281     0.447463     0.708893  Biso 1.000000     C
    C   1.0     0.388180     0.305800     0.704883  Biso 1.000000     C
    C   1.0     0.266651     0.249243     0.728825  Biso 1.000000     C
    C   1.0     0.234763     0.317556     0.658168  Biso 1.000000     C
    C   1.0     0.848870     0.360561     0.258626  Biso 1.000000     C
    C   1.0     0.756221     0.281019     0.258678  Biso 1.000000     C
    C   1.0     0.783304     0.295592     0.147387  Biso 1.000000     C
    C   1.0     0.914474     0.298344     0.000000  Biso 1.000000     C
    C   1.0     0.011592     0.272964     0.973296  Biso 1.000000     C
    C   1.0     0.111866     0.341869     0.973834  Biso 1.000000     C
    C   1.0     0.109457     0.259429     0.379776  Biso 1.000000     C
    C   1.0     0.000000     0.264300     0.457370  Biso 1.000000     C
    C   1.0     0.935867     0.154935     0.555533  Biso 1.000000     C
    C   1.0     0.923066     0.000000     0.699022  Biso 1.000000     C
    C   1.0     0.990195     0.979989     0.754368  Biso 1.000000     C
    C   1.0     0.087545     0.975981     0.685551  Biso 1.000000     C
    C   1.0     0.488438     0.377484     0.359821  Biso 1.000000     C
    C   1.0     0.474768     0.455266     0.278066  Biso 1.000000     C
    C   1.0     0.485723     0.552539     0.291118  Biso 1.000000     C
    C   1.0     0.611821     0.694199     0.295135  Biso 1.000000     C
    C   1.0     0.733351     0.750758     0.271191  Biso 1.000000     C
    C   1.0     0.765242     0.682447     0.341845  Biso 1.000000     C
    N   1.0     0.052748     0.638331     0.754479  Biso 1.000000     N
    N   1.0     0.989320     0.549218     0.755154  Biso 1.000000     N
    N   1.0     0.047354     0.498632     0.742484  Biso 1.000000     N
    N   1.0     0.149310     0.553724     0.733252  Biso 1.000000     N
    N   1.0     0.880058     0.658563     0.939847  Biso 1.000000     N
    N   1.0     0.775564     0.580474    -0.024252  Biso 1.000000     N
    N   1.0     0.722329     0.535056     0.079557  Biso 1.000000     N
    N   1.0     0.790642     0.582664     0.113514  Biso 1.000000     N
    N   1.0     0.806018     0.755454     0.607544  Biso 1.000000     N
    N   1.0     0.746445     0.761037     0.693684  Biso 1.000000     N
    N   1.0     0.792918     0.749490     0.756320  Biso 1.000000     N
    N   1.0     0.883212     0.736104     0.712347  Biso 1.000000     N
    N   1.0     0.818442     0.939962     0.400476  Biso 1.000000     N
    N   1.0     0.753182    -0.020611     0.441943  Biso 1.000000     N
    N   1.0     0.805282     0.083154     0.383001  Biso 1.000000     N
    N   1.0     0.905312     0.113527     0.301822  Biso 1.000000     N
    N   1.0     0.414476     0.609967     0.638256  Biso 1.000000     N
    N   1.0     0.439020     0.696292     0.547261  Biso 1.000000     N
    N   1.0     0.546850     0.758916     0.496359  Biso 1.000000     N
    N   1.0     0.594280     0.714729     0.553140  Biso 1.000000     N
    N   1.0     0.225437     0.403444     0.657350  Biso 1.000000     N
    N   1.0     0.198936     0.444567     0.577896  Biso 1.000000     N
    N   1.0     0.191724     0.385518     0.532919  Biso 1.000000     N
    N   1.0     0.213001     0.304616     0.582154  Biso 1.000000     N
    N   1.0     0.947249     0.361663     0.245540  Biso 1.000000     N
    N   1.0     0.010676     0.450774     0.244870  Biso 1.000000     N
    N   1.0     0.952642     0.501360     0.257540  Biso 1.000000     N
    N   1.0     0.850687     0.446271     0.266768  Biso 1.000000     N
    N   1.0     0.119945     0.341431     0.060170  Biso 1.000000     N
    N   1.0     0.224433     0.419528     0.000000  Biso 1.000000     N
    N   1.0     0.277673     0.464940     0.920461  Biso 1.000000     N
    N   1.0     0.209358     0.417338     0.886501  Biso 1.000000     N
    N   1.0     0.193983     0.244547     0.392472  Biso 1.000000     N
    N   1.0     0.253552     0.238959     0.306335  Biso 1.000000     N
    N   1.0     0.207075     0.250501     0.243702  Biso 1.000000     N
    N   1.0     0.116785     0.263894     0.287673  Biso 1.000000     N
    N   1.0     0.181561     0.060037     0.599541  Biso 1.000000     N
    N   1.0     0.246821     0.000000     0.558076  Biso 1.000000     N
    N   1.0     0.194719     0.916844     0.617018  Biso 1.000000     N
    N   1.0     0.094688     0.886472     0.698194  Biso 1.000000     N
    N   1.0     0.585529     0.390037     0.361757  Biso 1.000000     N
    N   1.0     0.560986     0.303713     0.452753  Biso 1.000000     N
    N   1.0     0.453156     0.241088     0.503655  Biso 1.000000     N
    N   1.0     0.405724     0.285274     0.446874  Biso 1.000000     N
    N   1.0     0.774570     0.596560     0.342663  Biso 1.000000     N
    N   1.0     0.801072     0.555438     0.422115  Biso 1.000000     N
    N   1.0     0.808284     0.614486     0.467092  Biso 1.000000     N
    N   1.0     0.787004     0.695387     0.417860  Biso 1.000000     N
    O   1.0     0.126515     0.728025     0.886959  Biso 1.000000     O
    O   1.0     0.008365     0.880542     0.386190  Biso 1.000000     O
    O   1.0     0.401850     0.389244     0.730195  Biso 1.000000     O
    O   1.0     0.873486     0.271969     0.113057  Biso 1.000000     O
    O   1.0     0.991638     0.119460     0.613826  Biso 1.000000     O
    O   1.0     0.598154     0.610758     0.269818  Biso 1.000000     O
   Zn   1.0     0.984147     0.728813     0.782989  Biso 1.000000    Zn
   Zn   1.0     0.764203     0.782689     0.489267  Biso 1.000000    Zn
   Zn   1.0     0.257477     0.490700     0.727897  Biso 1.000000    Zn
   Zn   1.0     0.015851     0.271184     0.217027  Biso 1.000000    Zn
   Zn   1.0     0.235802     0.217313     0.510748  Biso 1.000000    Zn
   Zn   1.0     0.742530     0.509304     0.272115  Biso 1.000000    Zn
