#======================================================================

# CRYSTAL DATA

#----------------------------------------------------------------------

data_VESTA_phase_1


_pd_phase_name                         MOF
_cell_length_a                         14.08100
_cell_length_b                         16.52500
_cell_length_c                         16.48500
_cell_angle_alpha                      106.59700
_cell_angle_beta                       90.05000
_cell_angle_gamma                      115.20600
_symmetry_space_group_name_H-M         "P 1"
_symmetry_Int_Tables_number            1

loop_
_symmetry_equiv_pos_as_xyz
   "x, y, z"

loop_
   _atom_site_label
   _atom_site_occupancy
   _atom_site_fract_x
   _atom_site_fract_y
   _atom_site_fract_z
   _atom_site_adp_type
   _atom_site_B_iso_or_equiv
   _atom_site_type_symbol
    H   1.0     0.257314     0.327585     0.484748  Biso 1.000000     H
    H   1.0     0.353419     0.562661     0.219234  Biso 1.000000     H
    H   1.0     0.070253     0.327715     0.984771  Biso 1.000000     H
    H   1.0     0.753472     0.672235     0.014986  Biso 1.000000     H
    H   1.0     0.062053     0.756236     0.301809  Biso 1.000000     H
    H   1.0     0.323826     0.974032     0.607909  Biso 1.000000     H
    H   1.0     0.386903     0.235860     0.446405  Biso 1.000000     H
    H   1.0     0.764048     0.316187     0.437769  Biso 1.000000     H
    H   1.0     0.305146     0.243786     0.198153  Biso 1.000000     H
    H   1.0     0.937935     0.243730     0.698190  Biso 1.000000     H
    H   1.0     0.690307     0.865484     0.139303  Biso 1.000000     H
    H   1.0     0.381036     0.279856     0.817147  Biso 1.000000     H
    H   1.0     0.447896     0.683619     0.062250  Biso 1.000000     H
    H   1.0     0.729166     0.119357     0.065029  Biso 1.000000     H
    H   1.0     0.650506     0.974075     0.107832  Biso 1.000000     H
    H   1.0     0.309684     0.134480     0.860697  Biso 1.000000     H
    H   1.0     0.646570     0.437310     0.780764  Biso 1.000000     H
    H   1.0     0.364351     0.454256     0.824744  Biso 1.000000     H
    H   1.0     0.246517     0.327735     0.985012  Biso 1.000000     H
    H   1.0     0.400889     0.662876     0.544802  Biso 1.000000     H
    H   1.0     0.910321     0.545670     0.675186  Biso 1.000000     H
    H   1.0     0.918910     0.672346     0.514992  Biso 1.000000     H
    H   1.0     0.742676     0.672382     0.515254  Biso 1.000000     H
    H   1.0     0.175420     0.865266     0.639075  Biso 1.000000     H
    H   1.0     0.818040     0.557903     0.180530  Biso 1.000000     H
    H   1.0     0.170478     0.552861     0.208822  Biso 1.000000     H
    H   1.0     0.211074     0.068471     0.145539  Biso 1.000000     H
    H   1.0     0.298202     0.062690     0.393930  Biso 1.000000     H
    H   1.0     0.526454     0.494207     0.830413  Biso 1.000000     H
    H   1.0     0.635637     0.545713     0.175256  Biso 1.000000     H
    H   1.0     0.617276     0.447095     0.291319  Biso 1.000000     H
    H   1.0     0.967511     0.494201     0.330491  Biso 1.000000     H
    H   1.0     0.618956     0.720109     0.182855  Biso 1.000000     H
    H   1.0     0.053035     0.635145     0.513295  Biso 1.000000     H
    H   1.0     0.701787     0.937275     0.606069  Biso 1.000000     H
    H   1.0     0.143152     0.931542     0.354424  Biso 1.000000     H
    H   1.0     0.259898     0.442145     0.319528  Biso 1.000000     H
    H   1.0     0.081082     0.327625     0.485008  Biso 1.000000     H
    H   1.0     0.417888     0.364946    -0.013276  Biso 1.000000     H
    H   1.0     0.382715     0.552874     0.708683  Biso 1.000000     H
    H   1.0     0.150949     0.764231     0.053500  Biso 1.000000     H
    H   1.0     0.473536     0.505765     0.169584  Biso 1.000000     H
    H   1.0     0.676162     0.025933     0.392089  Biso 1.000000     H
    H   1.0     0.829511     0.447109     0.791176  Biso 1.000000     H
    H   1.0     0.270824     0.880606     0.934969  Biso 1.000000     H
    H   1.0     0.235944     0.683785     0.562230  Biso 1.000000     H
    H   1.0     0.790375     0.437266     0.280891  Biso 1.000000     H
    H   1.0     0.849035     0.235733     0.946498  Biso 1.000000     H
    H   1.0     0.609534     0.880641     0.434881  Biso 1.000000     H
    H   1.0     0.788917     0.931495     0.854461  Biso 1.000000     H
    H   1.0     0.390456     0.119326     0.565120  Biso 1.000000     H
    H   1.0     0.582102     0.635023     0.000000  Biso 1.000000     H
    H   1.0     0.089671     0.454301     0.324814  Biso 1.000000     H
    H   1.0     0.235259     0.937408     0.105974  Biso 1.000000     H
    H   1.0     0.929736     0.672254     0.015228  Biso 1.000000     H
    H   1.0     0.101371     0.719915     0.682665  Biso 1.000000     H
    H   1.0     0.946958     0.364826     0.486705  Biso 1.000000     H
    H   1.0     0.209618     0.562705     0.719109  Biso 1.000000     H
    H   1.0     0.552095     0.316352     0.937749  Biso 1.000000     H
    H   1.0     0.613087     0.764105     0.553595  Biso 1.000000     H
    H   1.0     0.349488     0.025887     0.892166  Biso 1.000000     H
    H   1.0     0.740096     0.557828     0.680471  Biso 1.000000     H
    H   1.0     0.181949     0.442067     0.819471  Biso 1.000000     H
    H   1.0     0.824570     0.134699     0.360925  Biso 1.000000     H
    H   1.0     0.898615     0.280050     0.317334  Biso 1.000000     H
    H   1.0     0.599105     0.337097     0.455197  Biso 1.000000     H
    H   1.0     0.737992     0.337290     0.955166  Biso 1.000000     H
    H   1.0     0.856842     0.068425     0.645576  Biso 1.000000     H
    H   1.0     0.764733     0.062557     0.894026  Biso 1.000000     H
    H   1.0     0.694849     0.756180     0.801846  Biso 1.000000     H
    H   1.0     0.032480     0.505770     0.669509  Biso 1.000000     H
    H   1.0     0.261999     0.662683     0.044833  Biso 1.000000     H
    C   1.0     0.130356     0.446745     0.602513  Biso 1.000000     C
    C   1.0     0.250768     0.495192     0.371677  Biso 1.000000     C
    C   1.0     0.372530     0.121574     0.629766  Biso 1.000000     C
    C   1.0     0.146651     0.895056     0.288798  Biso 1.000000     C
    C   1.0     0.133748     0.704383     0.838277  Biso 1.000000     C
    C   1.0     0.135340     0.378656     0.035552  Biso 1.000000     C
    C   1.0     0.756707     0.621408     0.464499  Biso 1.000000     C
    C   1.0     0.782266     0.490315     0.333699  Biso 1.000000     C
    C   1.0     0.851893     0.427651     0.556058  Biso 1.000000     C
    C   1.0     0.711514     0.381719     0.002246  Biso 1.000000     C
    C   1.0     0.762183     0.370229     0.493334  Biso 1.000000     C
    C   1.0     0.346081     0.502506     0.875229  Biso 1.000000     C
    C   1.0     0.311089     0.043218     0.737436  Biso 1.000000     C
    C   1.0     0.808655     0.495507     0.839134  Biso 1.000000     C
    C   1.0     0.329886     0.618418     0.497744  Biso 1.000000     C
    C   1.0     0.755788     0.504871     0.128366  Biso 1.000000     C
    C   1.0     0.686629     0.495520     0.339250  Biso 1.000000     C
    C   1.0     0.251246     0.104978     0.211144  Biso 1.000000     C
    C   1.0     0.237810     0.629743     0.506665  Biso 1.000000     C
    C   1.0     0.732197     0.043345     0.237504  Biso 1.000000     C
    C   1.0     0.250758     0.878317     0.870256  Biso 1.000000     C
    C   1.0     0.313362     0.504448     0.660751  Biso 1.000000     C
    C   1.0     0.424110     0.572222     0.943911  Biso 1.000000     C
    C   1.0     0.631876     0.787822     0.227933  Biso 1.000000     C
    C   1.0     0.697150     0.796982     0.759691  Biso 1.000000     C
    C   1.0     0.424227     0.456521     0.109153  Biso 1.000000     C
    C   1.0     0.032425     0.456489     0.609095  Biso 1.000000     C
    C   1.0     0.670807     0.869040     0.203862  Biso 1.000000     C
    C   1.0     0.052050     0.643098     0.144086  Biso 1.000000     C
    C   1.0     0.100345     0.797056     0.259642  Biso 1.000000     C
    C   1.0     0.198347     0.868868     0.703714  Biso 1.000000     C
    C   1.0     0.751802     0.947851     0.734397  Biso 1.000000     C
    C   1.0     0.853339     0.104910     0.711201  Biso 1.000000     C
    C   1.0     0.052663     0.586341     0.452242  Biso 1.000000     C
    C   1.0     0.688901     0.956747     0.262564  Biso 1.000000     C
    C   1.0     0.818840     0.208572     0.188470  Biso 1.000000     C
    C   1.0     0.267794     0.956619     0.762495  Biso 1.000000     C
    C   1.0     0.702165     0.898320     0.649350  Biso 1.000000     C
    C   1.0     0.288477     0.618253     0.997753  Biso 1.000000     C
    C   1.0     0.196154     0.947938     0.234314  Biso 1.000000     C
    C   1.0     0.650771     0.800269     0.619764  Biso 1.000000     C
    C   1.0     0.801645     0.131096     0.296285  Biso 1.000000     C
    C   1.0     0.683447     0.553189     0.897417  Biso 1.000000     C
    C   1.0     0.843704     0.497390     0.624720  Biso 1.000000     C
    C   1.0     0.854746     0.620527     0.463885  Biso 1.000000     C
    C   1.0     0.869636     0.553226     0.397487  Biso 1.000000     C
    C   1.0     0.575880     0.427749     0.056088  Biso 1.000000     C
    C   1.0     0.627458     0.878391     0.370234  Biso 1.000000     C
    C   1.0     0.352803     0.251557     0.325177  Biso 1.000000     C
    C   1.0     0.803836     0.052027     0.765685  Biso 1.000000     C
    C   1.0     0.864649     0.621314     0.964447  Biso 1.000000     C
    C   1.0     0.850432     0.199589     0.880319  Biso 1.000000     C
    C   1.0     0.608079     0.370368     0.993332  Biso 1.000000     C
    C   1.0     0.653908     0.497464     0.124771  Biso 1.000000     C
    C   1.0     0.899644     0.202910     0.740358  Biso 1.000000     C
    C   1.0     0.243284     0.378560     0.535503  Biso 1.000000     C
    C   1.0     0.947329     0.413630     0.547758  Biso 1.000000     C
    C   1.0     0.329181     0.130924     0.796138  Biso 1.000000     C
    C   1.0     0.570636     0.704481     0.338313  Biso 1.000000     C
    C   1.0     0.334329     0.040487     0.653929  Biso 1.000000     C
    C   1.0     0.429372     0.295487     0.661693  Biso 1.000000     C
    C   1.0     0.149555     0.800376     0.119679  Biso 1.000000     C
    C   1.0     0.765731     0.620442     0.963844  Biso 1.000000     C
    C   1.0     0.575763     0.543450     0.890845  Biso 1.000000     C
    C   1.0     0.297827     0.101645     0.350649  Biso 1.000000     C
    C   1.0     0.947942     0.356868     0.855915  Biso 1.000000     C
    C   1.0     0.191333     0.504463     0.160864  Biso 1.000000     C
    C   1.0     0.749225     0.504780     0.628322  Biso 1.000000     C
    C   1.0     0.707811     0.490316     0.833591  Biso 1.000000     C
    C   1.0     0.803877     0.101537     0.850739  Biso 1.000000     C
    C   1.0     0.302843     0.202983     0.240308  Biso 1.000000     C
    C   1.0     0.408707     0.356951     0.355866  Biso 1.000000     C
    C   1.0     0.217726     0.509655     0.666301  Biso 1.000000     C
    C   1.0     0.591272     0.643015     0.644138  Biso 1.000000     C
    C   1.0     0.349218     0.199696     0.380236  Biso 1.000000     C
    C   1.0     0.316542     0.446782     0.102580  Biso 1.000000     C
    C   1.0     0.391911     0.629603     0.006666  Biso 1.000000     C
    C   1.0     0.610321     0.791505     0.311579  Biso 1.000000     C
    C   1.0     0.368114     0.212142     0.772067  Biso 1.000000     C
    C   1.0     0.665658     0.959478     0.346070  Biso 1.000000     C
    C   1.0     0.466406     0.413712     0.047794  Biso 1.000000     C
    C   1.0     0.181142     0.791393     0.811530  Biso 1.000000     C
    C   1.0     0.234258     0.379528     0.036154  Biso 1.000000     C
    C   1.0     0.156289     0.502581     0.375280  Biso 1.000000     C
    C   1.0     0.156061     0.787661     0.727799  Biso 1.000000     C
    C   1.0     0.533584     0.586258     0.952204  Biso 1.000000     C
    C   1.0     0.898451     0.251469     0.825244  Biso 1.000000     C
    C   1.0     0.292179     0.509654     0.166406  Biso 1.000000     C
    C   1.0     0.706360     0.040566     0.153914  Biso 1.000000     C
    C   1.0     0.749232     0.121646     0.129742  Biso 1.000000     C
    C   1.0     0.196112     0.898428     0.149260  Biso 1.000000     C
    C   1.0     0.748748     0.894988     0.788854  Biso 1.000000     C
    C   1.0     0.293634     0.959396     0.846084  Biso 1.000000     C
    C   1.0     0.647184     0.748408     0.674824  Biso 1.000000     C
    C   1.0     0.101538     0.748496     0.174756  Biso 1.000000     C
    C   1.0     0.145245     0.379443     0.536116  Biso 1.000000     C
    C   1.0     0.967568     0.543482     0.390905  Biso 1.000000     C
    C   1.0     0.148099     0.572320     0.443942  Biso 1.000000     C
    C   1.0     0.843927     0.212304     0.272200  Biso 1.000000     C
    C   1.0     0.866217     0.295584     0.161725  Biso 1.000000     C
    C   1.0     0.244201     0.495099     0.871635  Biso 1.000000     C
    C   1.0     0.670107     0.381555     0.502255  Biso 1.000000     C
    C   1.0     0.248191     0.052114     0.265601  Biso 1.000000     C
    C   1.0     0.389673     0.208461     0.688423  Biso 1.000000     C
    N   1.0     0.337344     0.552512     0.431170  Biso 1.000000     N
    N   1.0     0.886474     0.559747     0.903509  Biso 1.000000     N
    N   1.0     0.326801     0.440162     0.596404  Biso 1.000000     N
    N   1.0     0.215023     0.552376     0.931160  Biso 1.000000     N
    N   1.0     0.784966     0.447595     0.068841  Biso 1.000000     N
    N   1.0     0.113514     0.440222     0.096490  Biso 1.000000     N
    N   1.0     0.662650     0.447462     0.568827  Biso 1.000000     N
    N   1.0     0.673188     0.559804     0.403599  Biso 1.000000     N
    O   1.0     0.546647     0.624993     0.282485  Biso 1.000000     O
    O   1.0     0.051422     0.599602     0.065761  Biso 1.000000     O
    O   1.0     0.548174     0.599555     0.565828  Biso 1.000000     O
    O   1.0     0.437377     0.285493     0.582412  Biso 1.000000     O
    O   1.0     0.412415     0.401497     0.303373  Biso 1.000000     O
    O   1.0     0.151676     0.714382     0.917589  Biso 1.000000     O
    O   1.0     0.078234     0.624897     0.782424  Biso 1.000000     O
    O   1.0     0.921748     0.375068     0.217576  Biso 1.000000     O
    O   1.0     0.848306     0.285583     0.082411  Biso 1.000000     O
    O   1.0     0.453341     0.374972     0.717518  Biso 1.000000     O
    O   1.0     0.562623     0.714474     0.417593  Biso 1.000000     O
    O   1.0     0.587588     0.598469     0.696627  Biso 1.000000     O
    O   1.0     0.011387     0.598579     0.196611  Biso 1.000000     O
    O   1.0     0.451792     0.400409     0.434179  Biso 1.000000     O
    O   1.0     0.988603     0.401388     0.803391  Biso 1.000000     O
    O   1.0     0.948553     0.400361     0.934237  Biso 1.000000     O
   Cd   1.0     0.050949     0.555786     0.908657  Biso 1.000000    Cd
   Cd   1.0     0.495244     0.444090     0.591299  Biso 1.000000    Cd
   Cd   1.0     0.949036     0.444180     0.091344  Biso 1.000000    Cd
   Cd   1.0     0.504746     0.555876     0.408706  Biso 1.000000    Cd
