#======================================================================

# CRYSTAL DATA

#----------------------------------------------------------------------

data_VESTA_phase_1


_pd_phase_name                         MOF
_cell_length_a                         18.24700
_cell_length_b                         12.23300
_cell_length_c                         19.65900
_cell_angle_alpha                      89.98800
_cell_angle_beta                       90.00100
_cell_angle_gamma                      89.99900
_symmetry_space_group_name_H-M         "P 1"
_symmetry_Int_Tables_number            1

loop_
_symmetry_equiv_pos_as_xyz
   "x, y, z"

loop_
   _atom_site_label
   _atom_site_occupancy
   _atom_site_fract_x
   _atom_site_fract_y
   _atom_site_fract_z
   _atom_site_adp_type
   _atom_site_B_iso_or_equiv
   _atom_site_type_symbol
    C   1.0     0.021267     0.836155     0.981367  Biso 1.000000     C
    C   1.0     0.521267     0.836155     0.981366  Biso 1.000000     C
    C   1.0     0.020775     0.854404     0.759481  Biso 1.000000     C
    C   1.0     0.520775     0.854404     0.759481  Biso 1.000000     C
    C   1.0     0.478541     0.336092     0.518709  Biso 1.000000     C
    C   1.0     0.978541     0.336092     0.518708  Biso 1.000000     C
    C   1.0     0.478978     0.354449     0.740542  Biso 1.000000     C
    C   1.0     0.978978     0.354449     0.740542  Biso 1.000000     C
    C   1.0     0.271262     0.163886     0.018702  Biso 1.000000     C
    C   1.0     0.771262     0.163886     0.018702  Biso 1.000000     C
    C   1.0     0.270804     0.145630     0.240584  Biso 1.000000     C
    C   1.0     0.770804     0.145630     0.240584  Biso 1.000000     C
    C   1.0     0.228552     0.663943     0.481381  Biso 1.000000     C
    C   1.0     0.728553     0.663943     0.481381  Biso 1.000000     C
    C   1.0     0.228953     0.645595     0.259551  Biso 1.000000     C
    C   1.0     0.728953     0.645595     0.259551  Biso 1.000000     C
    C   1.0     0.478549     0.163882     0.018699  Biso 1.000000     C
    C   1.0     0.978549     0.163881     0.018700  Biso 1.000000     C
    C   1.0     0.478987     0.145648     0.240572  Biso 1.000000     C
    C   1.0     0.978987     0.145648     0.240572  Biso 1.000000     C
    C   1.0     0.021269     0.663951     0.481355  Biso 1.000000     C
    C   1.0     0.521270     0.663951     0.481355  Biso 1.000000     C
    C   1.0     0.020771     0.645586     0.259506  Biso 1.000000     C
    C   1.0     0.520771     0.645586     0.259506  Biso 1.000000     C
    C   1.0     0.228555     0.836172     0.981391  Biso 1.000000     C
    C   1.0     0.728555     0.836172     0.981391  Biso 1.000000     C
    C   1.0     0.228956     0.854407     0.759520  Biso 1.000000     C
    C   1.0     0.728957     0.854407     0.759521  Biso 1.000000     C
    C   1.0     0.271259     0.336075     0.518713  Biso 1.000000     C
    C   1.0     0.771259     0.336076     0.518713  Biso 1.000000     C
    C   1.0     0.270793     0.354446     0.740559  Biso 1.000000     C
    C   1.0     0.770793     0.354446     0.740559  Biso 1.000000     C
    C   1.0     0.374913     0.573603     0.881102  Biso 1.000000     C
    C   1.0     0.874913     0.573602     0.881102  Biso 1.000000     C
    C   1.0     0.374897     0.000000     0.834003  Biso 1.000000     C
    C   1.0     0.874898     0.000000     0.834004  Biso 1.000000     C
    C   1.0     0.124912     0.000000     0.618972  Biso 1.000000     C
    C   1.0     0.624913     0.000000     0.618972  Biso 1.000000     C
    C   1.0     0.124891     0.643984     0.666040  Biso 1.000000     C
    C   1.0     0.624892     0.643984     0.666040  Biso 1.000000     C
    C   1.0     0.124926     0.426440     0.118972  Biso 1.000000     C
    C   1.0     0.624926     0.426440     0.118971  Biso 1.000000     C
    C   1.0     0.124889    -0.143915     0.166078  Biso 1.000000     C
    C   1.0     0.624888    -0.143915     0.166078  Biso 1.000000     C
    C   1.0     0.374920    -0.073605     0.381101  Biso 1.000000     C
    C   1.0     0.874920    -0.073605     0.381101  Biso 1.000000     C
    C   1.0     0.374896     0.356051     0.334045  Biso 1.000000     C
    C   1.0     0.874896     0.356051     0.334045  Biso 1.000000     C
    C   1.0     0.124920     0.533960     0.101542  Biso 1.000000     C
    C   1.0     0.624920     0.533960     0.101542  Biso 1.000000     C
    C   1.0     0.124905     0.870158     0.581431  Biso 1.000000     C
    C   1.0     0.624906     0.870158     0.581431  Biso 1.000000     C
    C   1.0     0.374915     0.033891     0.398560  Biso 1.000000     C
    C   1.0     0.874915     0.033891     0.398559  Biso 1.000000     C
    C   1.0     0.374905     0.370086     0.918608  Biso 1.000000     C
    C   1.0     0.874905     0.370086     0.918608  Biso 1.000000     C
    C   1.0     0.374908     0.466086     0.898538  Biso 1.000000     C
    C   1.0     0.874909     0.466085     0.898538  Biso 1.000000     C
    C   1.0     0.374910     0.129866     0.418650  Biso 1.000000     C
    C   1.0     0.874910     0.129866     0.418650  Biso 1.000000     C
    C   1.0     0.124908     0.966134     0.601520  Biso 1.000000     C
    C   1.0     0.624909     0.966134     0.601520  Biso 1.000000     C
    C   1.0     0.124915     0.629960     0.081473  Biso 1.000000     C
    C   1.0     0.624915     0.629960     0.081473  Biso 1.000000     C
    N   1.0     0.467196     0.855038     0.951766  Biso 1.000000     N
    N   1.0     0.967196     0.855038     0.951767  Biso 1.000000     N
    N   1.0     0.466333     0.869683     0.789282  Biso 1.000000     N
    N   1.0     0.966333     0.869682     0.789282  Biso 1.000000     N
    N   1.0     0.032618     0.355040     0.548277  Biso 1.000000     N
    N   1.0     0.532618     0.355040     0.548277  Biso 1.000000     N
    N   1.0     0.033417     0.369711     0.710731  Biso 1.000000     N
    N   1.0     0.533417     0.369712     0.710731  Biso 1.000000     N
    N   1.0     0.217191     0.144997     0.048298  Biso 1.000000     N
    N   1.0     0.717191     0.144997     0.048297  Biso 1.000000     N
    N   1.0     0.216364     0.130352     0.210778  Biso 1.000000     N
    N   1.0     0.716364     0.130352     0.210778  Biso 1.000000     N
    N   1.0     0.282631     0.644999     0.451815  Biso 1.000000     N
    N   1.0     0.782631     0.644999     0.451814  Biso 1.000000     N
    N   1.0     0.283392     0.630330     0.289364  Biso 1.000000     N
    N   1.0     0.783392     0.630330     0.289363  Biso 1.000000     N
    N   1.0     0.032625     0.144998     0.048292  Biso 1.000000     N
    N   1.0     0.532625     0.144998     0.048291  Biso 1.000000     N
    N   1.0     0.033424     0.130392     0.210760  Biso 1.000000     N
    N   1.0     0.533424     0.130392     0.210760  Biso 1.000000     N
    N   1.0     0.467198     0.645004     0.451778  Biso 1.000000     N
    N   1.0     0.967198     0.645003     0.451777  Biso 1.000000     N
    N   1.0     0.466327     0.630300     0.289305  Biso 1.000000     N
    N   1.0     0.966328     0.630300     0.289305  Biso 1.000000     N
    N   1.0     0.282630     0.855055     0.951800  Biso 1.000000     N
    N   1.0     0.782630     0.855055     0.951800  Biso 1.000000     N
    N   1.0     0.283393     0.869668     0.789333  Biso 1.000000     N
    N   1.0     0.783393     0.869668     0.789334  Biso 1.000000     N
    N   1.0     0.217186     0.355025     0.548286  Biso 1.000000     N
    N   1.0     0.717186     0.355026     0.548287  Biso 1.000000     N
    N   1.0     0.216349     0.369724     0.710756  Biso 1.000000     N
    N   1.0     0.716349     0.369724     0.710756  Biso 1.000000     N
    N   1.0     0.374918     0.666714     0.866791  Biso 1.000000     N
    N   1.0     0.874918     0.666714     0.866791  Biso 1.000000     N
    N   1.0     0.374897     0.000000     0.868933  Biso 1.000000     N
    N   1.0     0.874898     0.000000     0.868934  Biso 1.000000     N
    N   1.0     0.124921     0.166739     0.633295  Biso 1.000000     N
    N   1.0     0.624922     0.166740     0.633295  Biso 1.000000     N
    N   1.0     0.124895     0.566108     0.631113  Biso 1.000000     N
    N   1.0     0.624896     0.566109     0.631113  Biso 1.000000     N
    N   1.0     0.124933     0.333326     0.133274  Biso 1.000000     N
    N   1.0     0.624933     0.333326     0.133274  Biso 1.000000     N
    N   1.0     0.124895    -0.066021     0.131147  Biso 1.000000     N
    N   1.0     0.624895    -0.066021     0.131147  Biso 1.000000     N
    N   1.0     0.374921     0.833291     0.366770  Biso 1.000000     N
    N   1.0     0.874922     0.833291     0.366769  Biso 1.000000     N
    N   1.0     0.374893     0.433930     0.368969  Biso 1.000000     N
    N   1.0     0.874893     0.433929     0.368969  Biso 1.000000     N
   Cd   1.0     0.374893     0.869940     0.871895  Biso 1.000000    Cd
   Cd   1.0     0.874894     0.869940     0.871896  Biso 1.000000    Cd
   Cd   1.0     0.124896     0.369985     0.628157  Biso 1.000000    Cd
   Cd   1.0     0.624897     0.369985     0.628157  Biso 1.000000    Cd
   Cd   1.0     0.124905     0.130103     0.128182  Biso 1.000000    Cd
   Cd   1.0     0.624904     0.130103     0.128182  Biso 1.000000    Cd
   Cd   1.0     0.374893     0.630050     0.371921  Biso 1.000000    Cd
   Cd   1.0     0.874893     0.630050     0.371920  Biso 1.000000    Cd
   Cd   1.0     0.124875     0.806965     0.715291  Biso 1.000000    Cd
   Cd   1.0     0.624876     0.806965     0.715292  Biso 1.000000    Cd
   Cd   1.0     0.124910     0.788878     0.027679  Biso 1.000000    Cd
   Cd   1.0     0.624910     0.788878     0.027678  Biso 1.000000    Cd
   Cd   1.0     0.374891     0.306990     0.784759  Biso 1.000000    Cd
   Cd   1.0     0.874892     0.306990     0.784759  Biso 1.000000    Cd
   Cd   1.0     0.374900     0.288746     0.472437  Biso 1.000000    Cd
   Cd   1.0     0.874900     0.288746     0.472437  Biso 1.000000    Cd
   Cd   1.0     0.374897     0.193073     0.284789  Biso 1.000000    Cd
   Cd   1.0     0.874897     0.193072     0.284789  Biso 1.000000    Cd
   Cd   1.0     0.374901     0.211170     0.972402  Biso 1.000000    Cd
   Cd   1.0     0.874902     0.211170     0.972402  Biso 1.000000    Cd
   Cd   1.0     0.124871     0.693052     0.215321  Biso 1.000000    Cd
   Cd   1.0     0.624871     0.693053     0.215320  Biso 1.000000    Cd
   Cd   1.0     0.124905     0.711280     0.527643  Biso 1.000000    Cd
   Cd   1.0     0.624906     0.711280     0.527643  Biso 1.000000    Cd
