#======================================================================

# CRYSTAL DATA

#----------------------------------------------------------------------

data_VESTA_phase_1


_pd_phase_name                         MOF
_cell_length_a                         11.76400
_cell_length_b                         20.87200
_cell_length_c                         20.87200
_cell_angle_alpha                      90.00000
_cell_angle_beta                       90.00000
_cell_angle_gamma                      90.00000
_symmetry_space_group_name_H-M         "P 1"
_symmetry_Int_Tables_number            1

loop_
_symmetry_equiv_pos_as_xyz
   "x, y, z"

loop_
   _atom_site_label
   _atom_site_occupancy
   _atom_site_fract_x
   _atom_site_fract_y
   _atom_site_fract_z
   _atom_site_adp_type
   _atom_site_B_iso_or_equiv
   _atom_site_type_symbol
    H   1.0     0.070757     0.155584     0.995163  Biso 1.000000     H
    H   1.0     0.580902     0.155584     0.995164  Biso 1.000000     H
    H   1.0     0.323514     0.454855     0.737802  Biso 1.000000     H
    H   1.0     0.833669     0.454857     0.737807  Biso 1.000000     H
    H   1.0     0.515510     0.000000     0.432559  Biso 1.000000     H
    H   1.0     0.000000     0.000000     0.432558  Biso 1.000000     H
    H   1.0     0.206088     0.512069     0.587158  Biso 1.000000     H
    H   1.0     0.716238     0.512073     0.587161  Biso 1.000000     H
    H   1.0     0.219258     0.860995     0.282522  Biso 1.000000     H
    H   1.0     0.729410     0.860995     0.282523  Biso 1.000000     H
    H   1.0     0.379087     0.938599     0.140849  Biso 1.000000     H
    H   1.0     0.889238     0.938597     0.140845  Biso 1.000000     H
    H   1.0     0.067476     0.232697     0.555894  Biso 1.000000     H
    H   1.0     0.577638     0.232697     0.555894  Biso 1.000000     H
    H   1.0     0.124046     0.075176     0.419575  Biso 1.000000     H
    H   1.0     0.634206     0.075173     0.419578  Biso 1.000000     H
    H   1.0     0.046127     0.929401     0.511154  Biso 1.000000     H
    H   1.0     0.556290     0.929402     0.511154  Biso 1.000000     H
    H   1.0     0.460790     0.082516     0.500165  Biso 1.000000     H
    H   1.0     0.970954     0.082518     0.500163  Biso 1.000000     H
    H   1.0     0.461807     0.424373     0.006037  Biso 1.000000     H
    H   1.0     0.971971     0.424371     0.006040  Biso 1.000000     H
    H   1.0     0.067485     0.273458     0.960267  Biso 1.000000     H
    H   1.0     0.577647     0.273458     0.960267  Biso 1.000000     H
    H   1.0     0.325445     0.489688     0.855929  Biso 1.000000     H
    H   1.0     0.835605     0.489686     0.855930  Biso 1.000000     H
    H   1.0     0.032872     0.282265     0.656579  Biso 1.000000     H
    H   1.0     0.543023     0.282265     0.656578  Biso 1.000000     H
    H   1.0     0.383166     0.365679     0.937907  Biso 1.000000     H
    H   1.0     0.893328     0.365679     0.937906  Biso 1.000000     H
    H   1.0     0.070524     0.349785     0.521466  Biso 1.000000     H
    H   1.0     0.580673     0.349788     0.521470  Biso 1.000000     H
    H   1.0     0.045197     0.587547     0.000000  Biso 1.000000     H
    H   1.0     0.555360     0.587547     0.000000  Biso 1.000000     H
    H   1.0     0.123881     0.871364     0.432137  Biso 1.000000     H
    H   1.0     0.634042     0.871363     0.432138  Biso 1.000000     H
    H   1.0     0.203386     0.000000     0.929613  Biso 1.000000     H
    H   1.0     0.713534     0.000000     0.929614  Biso 1.000000     H
    H   1.0     0.516294     0.516436     0.074416  Biso 1.000000     H
    H   1.0     0.000000     0.516436     0.074418  Biso 1.000000     H
    H   1.0     0.378673     0.591683     0.581062  Biso 1.000000     H
    H   1.0     0.888823     0.591685     0.581066  Biso 1.000000     H
    H   1.0     0.288445     0.353843     0.787788  Biso 1.000000     H
    H   1.0     0.798594     0.353844     0.787788  Biso 1.000000     H
    H   1.0     0.123831     0.646236     0.073432  Biso 1.000000     H
    H   1.0     0.633993     0.646236     0.073431  Biso 1.000000     H
    H   1.0     0.300930     0.499847     0.424190  Biso 1.000000     H
    H   1.0     0.811081     0.499851     0.424194  Biso 1.000000     H
    H   1.0     0.246612     0.073995     0.000000  Biso 1.000000     H
    H   1.0     0.756760     0.073998     0.000000  Biso 1.000000     H
    H   1.0     0.260744     0.580647     0.495279  Biso 1.000000     H
    H   1.0     0.770895     0.580649     0.495282  Biso 1.000000     H
    H   1.0     0.183484     0.557066     0.273535  Biso 1.000000     H
    H   1.0     0.693639     0.557067     0.273540  Biso 1.000000     H
    H   1.0     0.130866     0.085454     0.075263  Biso 1.000000     H
    H   1.0     0.641011     0.085455     0.075264  Biso 1.000000     H
    H   1.0     0.473735     0.788507     0.152006  Biso 1.000000     H
    H   1.0     0.983885     0.788507     0.152005  Biso 1.000000     H
    H   1.0     0.436259     0.856334     0.016175  Biso 1.000000     H
    H   1.0     0.946404     0.856334     0.016176  Biso 1.000000     H
    H   1.0     0.033217     0.223424     0.859340  Biso 1.000000     H
    H   1.0     0.543367     0.223424     0.859339  Biso 1.000000     H
    H   1.0     0.181948     0.995381     0.350067  Biso 1.000000     H
    H   1.0     0.692111     0.995381     0.350067  Biso 1.000000     H
    H   1.0    -0.008639     0.009879     0.578752  Biso 1.000000     H
    H   1.0     0.501523     0.009877     0.578755  Biso 1.000000     H
    H   1.0     0.383048     0.140555     0.579204  Biso 1.000000     H
    H   1.0     0.893210     0.140554     0.579205  Biso 1.000000     H
    H   1.0     0.439510     0.738462     0.051079  Biso 1.000000     H
    H   1.0     0.949671     0.738463     0.051079  Biso 1.000000     H
    H   1.0     0.436487     0.662115     0.489862  Biso 1.000000     H
    H   1.0     0.946636     0.662119     0.489867  Biso 1.000000     H
    H   1.0     0.303614     0.005644     0.081717  Biso 1.000000     H
    H   1.0     0.813761     0.005646     0.081719  Biso 1.000000     H
    H   1.0     0.324894     0.016560     0.661280  Biso 1.000000     H
    H   1.0     0.835059     0.016560     0.661280  Biso 1.000000     H
    H   1.0     0.474032     0.729651     0.354763  Biso 1.000000     H
    H   1.0     0.984183     0.729651     0.354762  Biso 1.000000     H
    H   1.0     0.439461     0.779236     0.455453  Biso 1.000000     H
    H   1.0     0.949624     0.779236     0.455452  Biso 1.000000     H
    H   1.0     0.181563     0.522233     0.155411  Biso 1.000000     H
    H   1.0     0.691721     0.522233     0.155409  Biso 1.000000     H
    H   1.0     0.246267     0.431259     0.516057  Biso 1.000000     H
    H   1.0     0.756418     0.431261     0.516059  Biso 1.000000     H
    H   1.0     0.321708     0.051015     0.778983  Biso 1.000000     H
    H   1.0     0.831862     0.051013     0.778979  Biso 1.000000     H
    H   1.0     0.382844     0.936772     0.591779  Biso 1.000000     H
    H   1.0     0.893006     0.936771     0.591780  Biso 1.000000     H
    H   1.0    -0.009287     0.495484     0.936921  Biso 1.000000     H
    H   1.0     0.500871     0.495486     0.936921  Biso 1.000000     H
    H   1.0     0.128914     0.432306     0.645468  Biso 1.000000     H
    H   1.0     0.639065     0.432309     0.645473  Biso 1.000000     H
    H   1.0     0.383065     0.581120     0.926137  Biso 1.000000     H
    H   1.0     0.893225     0.581118     0.926136  Biso 1.000000     H
    H   1.0     0.260392     0.937929     0.010303  Biso 1.000000     H
    H   1.0     0.770541     0.937931     0.010304  Biso 1.000000     H
    H   1.0     0.378092     0.579609     0.365875  Biso 1.000000     H
    H   1.0     0.888243     0.579611     0.365879  Biso 1.000000     H
    H   1.0     0.128346     0.420236     0.430284  Biso 1.000000     H
    H   1.0     0.638495     0.420238     0.430288  Biso 1.000000     H
    H   1.0     0.185248     0.960901     0.232373  Biso 1.000000     H
    H   1.0     0.695402     0.960899     0.232369  Biso 1.000000     H
    H   1.0     0.123944     0.430799     0.085207  Biso 1.000000     H
    H   1.0     0.634103     0.430799     0.085204  Biso 1.000000     H
    H   1.0     0.218517     0.658070     0.223544  Biso 1.000000     H
    H   1.0     0.728665     0.658071     0.223544  Biso 1.000000     H
    H   1.0     0.127875     0.073335     0.870499  Biso 1.000000     H
    H   1.0     0.638026     0.073333     0.870494  Biso 1.000000     H
    H   1.0     0.287625     0.150916     0.728809  Biso 1.000000     H
    H   1.0     0.797776     0.150917     0.728810  Biso 1.000000     H
    H   1.0     0.376143     0.926455     0.936070  Biso 1.000000     H
    H   1.0     0.886289     0.926456     0.936071  Biso 1.000000     H
    C   1.0     0.461081     0.956855     0.156310  Biso 1.000000     C
    C   1.0     0.971230     0.956854     0.156307  Biso 1.000000     C
    C   1.0     0.332423     0.429512     0.497423  Biso 1.000000     C
    C   1.0     0.842574     0.429516     0.497425  Biso 1.000000     C
    C   1.0     0.172184     0.936081     0.000000  Biso 1.000000     C
    C   1.0     0.682334     0.936082     0.000000  Biso 1.000000     C
    C   1.0     0.334822     0.075838     0.008318  Biso 1.000000     C
    C   1.0     0.844972     0.075838     0.008318  Biso 1.000000     C
    C   1.0     0.264707     0.510895     0.889128  Biso 1.000000     C
    C   1.0     0.774866     0.510894     0.889127  Biso 1.000000     C
    C   1.0     0.110930     0.548900     0.304755  Biso 1.000000     C
    C   1.0     0.621082     0.548901     0.304759  Biso 1.000000     C
    C   1.0     0.045522     0.082967     0.055582  Biso 1.000000     C
    C   1.0     0.555668     0.082967     0.055582  Biso 1.000000     C
    C   1.0     0.108436     0.952011     0.542388  Biso 1.000000     C
    C   1.0     0.618598     0.952010     0.542389  Biso 1.000000     C
    C   1.0     0.154103     0.019831     0.623775  Biso 1.000000     C
    C   1.0     0.664266     0.019831     0.623776  Biso 1.000000     C
    C   1.0     0.286558     0.082276     0.465868  Biso 1.000000     C
    C   1.0     0.796721     0.082276     0.465868  Biso 1.000000     C
    C   1.0     0.174595     0.582403     0.513923  Biso 1.000000     C
    C   1.0     0.684746     0.582405     0.513926  Biso 1.000000     C
    C   1.0     0.143297     0.543266     0.564917  Biso 1.000000     C
    C   1.0     0.653447     0.543268     0.564918  Biso 1.000000     C
    C   1.0     0.396072     0.463021     0.706584  Biso 1.000000     C
    C   1.0     0.906225     0.463022     0.706587  Biso 1.000000     C
    C   1.0     0.478096     0.039548     0.081983  Biso 1.000000     C
    C   1.0     0.988244     0.039548     0.081983  Biso 1.000000     C
    C   1.0     0.140711     0.975070     0.951941  Biso 1.000000     C
    C   1.0     0.650859     0.975071     0.951942  Biso 1.000000     C
    C   1.0     0.076871     0.514112     0.935198  Biso 1.000000     C
    C   1.0     0.587030     0.514113     0.935198  Biso 1.000000     C
    C   1.0     0.140005     0.304708     0.968422  Biso 1.000000     C
    C   1.0     0.650167     0.304707     0.968421  Biso 1.000000     C
    C   1.0     0.494766     0.889667     0.000000  Biso 1.000000     C
    C   1.0     0.000000     0.889668     0.000000  Biso 1.000000     C
    C   1.0     0.409788     0.118648     0.991525  Biso 1.000000     C
    C   1.0     0.919937     0.118648     0.991526  Biso 1.000000     C
    C   1.0     0.372994     0.345161     0.580348  Biso 1.000000     C
    C   1.0     0.883145     0.345162     0.580349  Biso 1.000000     C
    C   1.0     0.459862     0.561229     0.350159  Biso 1.000000     C
    C   1.0     0.970010     0.561231     0.350161  Biso 1.000000     C
    C   1.0     0.097442     0.625187     0.485944  Biso 1.000000     C
    C   1.0     0.607592     0.625187     0.485944  Biso 1.000000     C
    C   1.0     0.366758     0.810390     0.463455  Biso 1.000000     C
    C   1.0     0.876921     0.810390     0.463455  Biso 1.000000     C
    C   1.0     0.043035     0.422615     0.450021  Biso 1.000000     C
    C   1.0     0.553184     0.422617     0.450024  Biso 1.000000     C
    C   1.0     0.409568     0.386717     0.525395  Biso 1.000000     C
    C   1.0     0.919717     0.386718     0.525394  Biso 1.000000     C
    C   1.0     0.352842     0.525919     0.118753  Biso 1.000000     C
    C   1.0     0.863000     0.525919     0.118753  Biso 1.000000     C
    C   1.0     0.287120     0.424112     0.039592  Biso 1.000000     C
    C   1.0     0.797282     0.424111     0.039592  Biso 1.000000     C
    C   1.0     0.209287     0.450497     0.082875  Biso 1.000000     C
    C   1.0     0.719446     0.450497     0.082873  Biso 1.000000     C
    C   1.0     0.045887     0.055073     0.855035  Biso 1.000000     C
    C   1.0     0.556036     0.055072     0.855033  Biso 1.000000     C
    C   1.0     0.366991     0.707213     0.042922  Biso 1.000000     C
    C   1.0     0.877152     0.707213     0.042922  Biso 1.000000     C
    C   1.0     0.475537     0.466118     0.423825  Biso 1.000000     C
    C   1.0     0.985685     0.466118     0.423825  Biso 1.000000     C
    C   1.0     0.219885     0.587808     0.971749  Biso 1.000000     C
    C   1.0     0.730047     0.587807     0.971748  Biso 1.000000     C
    C   1.0     0.076465     0.000000     0.580975  Biso 1.000000     C
    C   1.0     0.586629     0.000000     0.580976  Biso 1.000000     C
    C   1.0     0.297437     0.956328     0.588987  Biso 1.000000     C
    C   1.0     0.807599     0.956327     0.588988  Biso 1.000000     C
    C   1.0     0.363718     0.468645     0.446426  Biso 1.000000     C
    C   1.0     0.873867     0.468647     0.446427  Biso 1.000000     C
    C   1.0     0.373072     0.160195     0.936591  Biso 1.000000     C
    C   1.0     0.883222     0.160194     0.936591  Biso 1.000000     C
    C   1.0     0.028904     0.972369     0.929351  Biso 1.000000     C
    C   1.0     0.539053     0.972370     0.929352  Biso 1.000000     C
    C   1.0     0.031481     0.545800     0.587521  Biso 1.000000     C
    C   1.0     0.541629     0.545800     0.587520  Biso 1.000000     C
    C   1.0     0.133932     0.851728     0.074744  Biso 1.000000     C
    C   1.0     0.644082     0.851728     0.074744  Biso 1.000000     C
    C   1.0     0.012248     0.122246     0.005058  Biso 1.000000     C
    C   1.0     0.522393     0.122247     0.005059  Biso 1.000000     C
    C   1.0     0.205547     0.855696     0.450700  Biso 1.000000     C
    C   1.0     0.715709     0.855696     0.450700  Biso 1.000000     C
    C   1.0     0.263603     0.000000     0.627930  Biso 1.000000     C
    C   1.0     0.773767     0.000000     0.627929  Biso 1.000000     C
    C   1.0     0.398466     0.059910     0.468938  Biso 1.000000     C
    C   1.0     0.908630     0.059911     0.468937  Biso 1.000000     C
    C   1.0     0.301385     0.156229     0.560642  Biso 1.000000     C
    C   1.0     0.811547     0.156228     0.560642  Biso 1.000000     C
    C   1.0     0.220349     0.929654     0.545469  Biso 1.000000     C
    C   1.0     0.730512     0.929654     0.545470  Biso 1.000000     C
    C   1.0     0.205700     0.661883     0.055143  Biso 1.000000     C
    C   1.0     0.715862     0.661883     0.055142  Biso 1.000000     C
    C   1.0     0.117773     0.431029     0.851003  Biso 1.000000     C
    C   1.0     0.627927     0.431029     0.851003  Biso 1.000000     C
    C   1.0     0.047148     0.450688     0.661186  Biso 1.000000     C
    C   1.0     0.557296     0.450690     0.661188  Biso 1.000000     C
    C   1.0     0.242301     0.501026     0.122212  Biso 1.000000     C
    C   1.0     0.752459     0.501026     0.122210  Biso 1.000000     C
    C   1.0     0.140175     0.201541     0.547890  Biso 1.000000     C
    C   1.0     0.650338     0.201541     0.547889  Biso 1.000000     C
    C   1.0     0.390369     0.937003     0.346539  Biso 1.000000     C
    C   1.0     0.900536     0.937003     0.346540  Biso 1.000000     C
    C   1.0     0.154164     0.486005     0.892584  Biso 1.000000     C
    C   1.0     0.664322     0.486004     0.892584  Biso 1.000000     C
    C   1.0     0.097219     0.893274     0.019810  Biso 1.000000     C
    C   1.0     0.607368     0.893275     0.019810  Biso 1.000000     C
    C   1.0     0.134005     0.666740     0.430988  Biso 1.000000     C
    C   1.0     0.644156     0.666741     0.430988  Biso 1.000000     C
    C   1.0     0.108066     0.565209     0.974225  Biso 1.000000     C
    C   1.0     0.618227     0.565210     0.974225  Biso 1.000000     C
    C   1.0     0.209446     0.055610     0.422360  Biso 1.000000     C
    C   1.0     0.719608     0.055609     0.422360  Biso 1.000000     C
    C   1.0     0.497118     0.628756     0.510908  Biso 1.000000     C
    C   1.0     0.000000     0.628756     0.510910  Biso 1.000000     C
    C   1.0     0.009902     0.383160     0.500436  Biso 1.000000     C
    C   1.0     0.520049     0.383160     0.500437  Biso 1.000000     C
    C   1.0     0.366290     0.036851     0.059393  Biso 1.000000     C
    C   1.0     0.876438     0.036853     0.059394  Biso 1.000000     C
    C   1.0     0.389231     0.580900     0.160328  Biso 1.000000     C
    C   1.0     0.899385     0.580900     0.160328  Biso 1.000000     C
    C   1.0     0.398939     0.446711     0.037114  Biso 1.000000     C
    C   1.0     0.909101     0.446709     0.037116  Biso 1.000000     C
    C   1.0     0.394457     0.042869     0.810058  Biso 1.000000     C
    C   1.0     0.904608     0.042868     0.810056  Biso 1.000000     C
    C   1.0     0.297722     0.561422     0.928468  Biso 1.000000     C
    C   1.0     0.807882     0.561421     0.928467  Biso 1.000000     C
    C   1.0     0.463979     0.589296     0.561318  Biso 1.000000     C
    C   1.0     0.974128     0.589298     0.561321  Biso 1.000000     C
    C   1.0     0.301297     0.350035     0.956197  Biso 1.000000     C
    C   1.0     0.811459     0.350034     0.956197  Biso 1.000000     C
    C   1.0     0.461484     0.928949     0.955754  Biso 1.000000     C
    C   1.0     0.971630     0.928949     0.955754  Biso 1.000000     C
    C   1.0     0.112508     0.969050     0.201292  Biso 1.000000     C
    C   1.0     0.622659     0.969049     0.201290  Biso 1.000000     C
    C   1.0     0.116430     0.074924     0.664782  Biso 1.000000     C
    C   1.0     0.626597     0.074924     0.664783  Biso 1.000000     C
    C   1.0     0.352745     0.992098     0.387553  Biso 1.000000     C
    C   1.0     0.862909     0.992099     0.387553  Biso 1.000000     C
    C   1.0     0.430412     0.008662     0.430342  Biso 1.000000     C
    C   1.0     0.940576     0.008662     0.430341  Biso 1.000000     C
    C   1.0     0.243254     0.004940     0.383408  Biso 1.000000     C
    C   1.0     0.753417     0.004938     0.383409  Biso 1.000000     C
    C   1.0     0.430135     0.497810     0.076140  Biso 1.000000     C
    C   1.0     0.940294     0.497809     0.076141  Biso 1.000000     C
    N   1.0     0.272579     0.706207     0.081474  Biso 1.000000     N
    N   1.0     0.782740     0.706207     0.081473  Biso 1.000000     N
    N   1.0     0.488915     0.081374     0.810810  Biso 1.000000     N
    N   1.0     0.999064     0.081375     0.810811  Biso 1.000000     N
    N   1.0     0.360428     0.666278     0.000000  Biso 1.000000     N
    N   1.0     0.870590     0.666278     0.000000  Biso 1.000000     N
    N   1.0     0.145394     0.160719     0.499325  Biso 1.000000     N
    N   1.0     0.655557     0.160719     0.499324  Biso 1.000000     N
    N   1.0     0.016779     0.587638     0.305968  Biso 1.000000     N
    N   1.0     0.526930     0.587638     0.305969  Biso 1.000000     N
    N   1.0     0.018037     0.930554     0.200540  Biso 1.000000     N
    N   1.0     0.528186     0.930554     0.200541  Biso 1.000000     N
    N   1.0     0.249635     0.131930     0.507672  Biso 1.000000     N
    N   1.0     0.759798     0.131930     0.507672  Biso 1.000000     N
    N   1.0     0.361535     0.851216     0.512018  Biso 1.000000     N
    N   1.0     0.871699     0.851216     0.512018  Biso 1.000000     N
    N   1.0     0.490221     0.424281     0.705375  Biso 1.000000     N
    N   1.0     0.000000     0.424280     0.705375  Biso 1.000000     N
    N   1.0     0.106104     0.500258     0.345494  Biso 1.000000     N
    N   1.0     0.616256     0.500260     0.345497  Biso 1.000000     N
    N   1.0     0.248839     0.374502     0.000000  Biso 1.000000     N
    N   1.0     0.759002     0.374501     0.000000  Biso 1.000000     N
    N   1.0     0.398078     0.000000     0.851091  Biso 1.000000     N
    N   1.0     0.908229     0.000000     0.851088  Biso 1.000000     N
    N   1.0     0.258162     0.637418     0.002449  Biso 1.000000     N
    N   1.0     0.768325     0.637417     0.002448  Biso 1.000000     N
    N   1.0     0.001836     0.508309     0.374353  Biso 1.000000     N
    N   1.0     0.511984     0.508309     0.374354  Biso 1.000000     N
    N   1.0     0.234087     0.200425     0.586821  Biso 1.000000     N
    N   1.0     0.744248     0.200424     0.586821  Biso 1.000000     N
    N   1.0     0.108909     0.005561     0.160251  Biso 1.000000     N
    N   1.0     0.619060     0.005558     0.160248  Biso 1.000000     N
    N   1.0     0.003326     0.000000     0.131653  Biso 1.000000     N
    N   1.0     0.513473     0.000000     0.131653  Biso 1.000000     N
    N   1.0     0.146573     0.345643     0.005541  Biso 1.000000     N
    N   1.0     0.656736     0.345642     0.005541  Biso 1.000000     N
    N   1.0     0.234413     0.305711     0.929868  Biso 1.000000     N
    N   1.0     0.744575     0.305712     0.929867  Biso 1.000000     N
    N   1.0     0.400907     0.511663     0.665847  Biso 1.000000     N
    N   1.0     0.911058     0.511664     0.665851  Biso 1.000000     N
    N   1.0     0.505182     0.503614     0.636996  Biso 1.000000     N
    N   1.0     0.000000     0.503614     0.636997  Biso 1.000000     N
    N   1.0     0.257293     0.880002     0.503668  Biso 1.000000     N
    N   1.0     0.767456     0.880003     0.503667  Biso 1.000000     N
    N   1.0     0.503666     0.002441     0.879683  Biso 1.000000     N
    N   1.0     0.000000     0.002440     0.879682  Biso 1.000000     N
    N   1.0     0.272847     0.811500     0.424523  Biso 1.000000     N
    N   1.0     0.783009     0.811500     0.424524  Biso 1.000000     N
    O   1.0     0.437059     0.299366     0.598131  Biso 1.000000     O
    O   1.0     0.947210     0.299368     0.598131  Biso 1.000000     O
    O   1.0     0.430166     0.742372     0.316478  Biso 1.000000     O
    O   1.0     0.940316     0.742373     0.316478  Biso 1.000000     O
    O   1.0     0.021249     0.404934     0.862632  Biso 1.000000     O
    O   1.0     0.531403     0.404935     0.862632  Biso 1.000000     O
    O   1.0     0.174621     0.696350     0.236225  Biso 1.000000     O
    O   1.0     0.684770     0.696351     0.236224  Biso 1.000000     O
    O   1.0     0.331678     0.189069     0.741647  Biso 1.000000     O
    O   1.0     0.841829     0.189070     0.741648  Biso 1.000000     O
    O   1.0     0.230168     0.654719     0.404680  Biso 1.000000     O
    O   1.0     0.740318     0.654719     0.404680  Biso 1.000000     O
    O   1.0     0.485751     0.606997     0.148698  Biso 1.000000     O
    O   1.0     0.995905     0.606998     0.148698  Biso 1.000000     O
    O   1.0     0.327364     0.918987     0.300320  Biso 1.000000     O
    O   1.0     0.837532     0.918986     0.300321  Biso 1.000000     O
    O   1.0     0.179412     0.092953     0.711007  Biso 1.000000     O
    O   1.0     0.689578     0.092951     0.711008  Biso 1.000000     O
    O   1.0     0.076743     0.269550     0.694865  Biso 1.000000     O
    O   1.0     0.586894     0.269550     0.694864  Biso 1.000000     O
    O   1.0     0.230499     0.863454     0.100763  Biso 1.000000     O
    O   1.0     0.740649     0.863454     0.100763  Biso 1.000000     O
    O   1.0     0.486251     0.910773     0.359298  Biso 1.000000     O
    O   1.0     0.996419     0.910775     0.359298  Biso 1.000000     O
    O   1.0     0.276501     0.148470     0.910575  Biso 1.000000     O
    O   1.0     0.786650     0.148470     0.910575  Biso 1.000000     O
    O   1.0     0.324560     0.598909     0.205739  Biso 1.000000     O
    O   1.0     0.834711     0.598910     0.205737  Biso 1.000000     O
    O   1.0     0.276841     0.357202     0.606660  Biso 1.000000     O
    O   1.0     0.786990     0.357202     0.606660  Biso 1.000000     O
    O   1.0     0.020530     0.101136     0.652028  Biso 1.000000     O
    O   1.0     0.530698     0.101138     0.652028  Biso 1.000000     O
    O   1.0     0.069891     0.712502     0.413182  Biso 1.000000     O
    O   1.0     0.580042     0.712504     0.413182  Biso 1.000000     O
    O   1.0     0.077135     0.236093     0.821068  Biso 1.000000     O
    O   1.0     0.587285     0.236093     0.821067  Biso 1.000000     O
    O   1.0     0.182446     0.413022     0.805594  Biso 1.000000     O
    O   1.0     0.692597     0.413022     0.805592  Biso 1.000000     O
    O   1.0     0.332341     0.315563     0.775107  Biso 1.000000     O
    O   1.0     0.842490     0.315563     0.775106  Biso 1.000000     O
    O   1.0     0.069495     0.806255     0.092838  Biso 1.000000     O
    O   1.0     0.579644     0.806256     0.092838  Biso 1.000000     O
    O   1.0     0.437500     0.205672     0.918500  Biso 1.000000     O
    O   1.0     0.947649     0.205672     0.918500  Biso 1.000000     O
    O   1.0     0.175202     0.822841     0.269687  Biso 1.000000     O
    O   1.0     0.685353     0.822842     0.269688  Biso 1.000000     O
    O   1.0     0.429814     0.775837     0.190276  Biso 1.000000     O
    O   1.0     0.939963     0.775836     0.190275  Biso 1.000000     O
   Cd   1.0     0.238178     0.777348     0.172070  Biso 1.000000    Cd
   Cd   1.0     0.748329     0.777348     0.172069  Biso 1.000000    Cd
   Cd   1.0     0.268768     0.234569     0.839268  Biso 1.000000    Cd
   Cd   1.0     0.778919     0.234569     0.839268  Biso 1.000000    Cd
   Cd   1.0     0.268596     0.270566     0.677625  Biso 1.000000    Cd
   Cd   1.0     0.778748     0.270566     0.677626  Biso 1.000000    Cd
   Cd   1.0     0.492952     0.678253     0.235117  Biso 1.000000    Cd
   Cd   1.0     0.000000     0.678253     0.235116  Biso 1.000000    Cd
   Cd   1.0     0.238320     0.741354     0.333710  Biso 1.000000    Cd
   Cd   1.0     0.748472     0.741354     0.333710  Biso 1.000000    Cd
   Cd   1.0     0.013475     0.171937     0.739725  Biso 1.000000    Cd
   Cd   1.0     0.523623     0.171937     0.739723  Biso 1.000000    Cd
   Cd   1.0     0.014007     0.333673     0.776231  Biso 1.000000    Cd
   Cd   1.0     0.524155     0.333673     0.776231  Biso 1.000000    Cd
   Cd   1.0     0.493427     0.839992     0.271621  Biso 1.000000    Cd
   Cd   1.0     0.000000     0.839991     0.271619  Biso 1.000000    Cd
