#======================================================================

# CRYSTAL DATA

#----------------------------------------------------------------------

data_VESTA_phase_1


_pd_phase_name                         MOF
_cell_length_a                         12.02000
_cell_length_b                         21.09100
_cell_length_c                         21.09100
_cell_angle_alpha                      90.00300
_cell_angle_beta                       90.01000
_cell_angle_gamma                      90.04400
_symmetry_space_group_name_H-M         "P 1"
_symmetry_Int_Tables_number            1

loop_
_symmetry_equiv_pos_as_xyz
   "x, y, z"

loop_
   _atom_site_label
   _atom_site_occupancy
   _atom_site_fract_x
   _atom_site_fract_y
   _atom_site_fract_z
   _atom_site_adp_type
   _atom_site_B_iso_or_equiv
   _atom_site_type_symbol
    H   1.0     0.128014     0.573908     0.914887  Biso 1.000000     H
    H   1.0     0.627995     0.573908     0.914886  Biso 1.000000     H
    H   1.0     0.124176     0.927518     0.138572  Biso 1.000000     H
    H   1.0     0.624158     0.927518     0.138572  Biso 1.000000     H
    H   1.0     0.048198     0.005871     0.080489  Biso 1.000000     H
    H   1.0     0.548180     0.005869     0.080488  Biso 1.000000     H
    H   1.0     0.031745     0.350206     0.778376  Biso 1.000000     H
    H   1.0     0.531727     0.350208     0.778377  Biso 1.000000     H
    H   1.0     0.297902     0.580448     0.993987  Biso 1.000000     H
    H   1.0     0.797885     0.580448     0.993986  Biso 1.000000     H
    H   1.0     0.319186     0.344972     0.516448  Biso 1.000000     H
    H   1.0     0.819170     0.344970     0.516447  Biso 1.000000     H
    H   1.0     0.183877     0.728664     0.050343  Biso 1.000000     H
    H   1.0     0.683858     0.728665     0.050342  Biso 1.000000     H
    H   1.0     0.256453     0.510380     0.073772  Biso 1.000000     H
    H   1.0     0.756437     0.510380     0.073771  Biso 1.000000     H
    H   1.0     0.372722     0.073487     0.414312  Biso 1.000000     H
    H   1.0     0.872707     0.073487     0.414310  Biso 1.000000     H
    H   1.0     0.180798     0.655025     0.483551  Biso 1.000000     H
    H   1.0     0.680780     0.655024     0.483550  Biso 1.000000     H
    H   1.0     0.243652     0.489623     0.926172  Biso 1.000000     H
    H   1.0     0.743636     0.489624     0.926171  Biso 1.000000     H
    H   1.0     0.066323     0.449871     0.728377  Biso 1.000000     H
    H   1.0     0.566307     0.449871     0.728377  Biso 1.000000     H
    H   1.0     0.070635     0.483793     0.845179  Biso 1.000000     H
    H   1.0     0.570616     0.483792     0.845179  Biso 1.000000     H
    H   1.0     0.493761     0.073634     0.989692  Biso 1.000000     H
    H   1.0     0.993744     0.073636     0.989693  Biso 1.000000     H
    H   1.0     0.316160     0.271351     0.949658  Biso 1.000000     H
    H   1.0     0.816147     0.271348     0.949658  Biso 1.000000     H
    H   1.0     0.492640     0.426408     0.510159  Biso 1.000000     H
    H   1.0     0.992620     0.426407     0.510159  Biso 1.000000     H
    H   1.0     0.184297     0.771962     0.450022  Biso 1.000000     H
    H   1.0     0.684282     0.771963     0.450021  Biso 1.000000     H
    H   1.0     0.373643     0.638666     0.072448  Biso 1.000000     H
    H   1.0     0.873625     0.638668     0.072447  Biso 1.000000     H
    H   1.0     0.069092     0.016501     0.655213  Biso 1.000000     H
    H   1.0     0.569077     0.016503     0.655211  Biso 1.000000     H
    H   1.0     0.281560     0.221562     0.850215  Biso 1.000000     H
    H   1.0     0.781543     0.221562     0.850216  Biso 1.000000     H
    H   1.0     0.320593     0.155011     0.983733  Biso 1.000000     H
    H   1.0     0.820573     0.155011     0.983732  Biso 1.000000     H
    H   1.0     0.434512     0.949815     0.228294  Biso 1.000000     H
    H   1.0     0.934494     0.949815     0.228293  Biso 1.000000     H
    H   1.0     0.297698     0.919357     0.505732  Biso 1.000000     H
    H   1.0     0.797681     0.919359     0.505730  Biso 1.000000     H
    H   1.0     0.468959     0.850967     0.278592  Biso 1.000000     H
    H   1.0     0.968941     0.850969     0.278592  Biso 1.000000     H
    H   1.0     0.468302     0.649739     0.221596  Biso 1.000000     H
    H   1.0     0.968285     0.649740     0.221597  Biso 1.000000     H
    H   1.0     0.202159     0.419562     0.005962  Biso 1.000000     H
    H   1.0     0.702141     0.419563     0.005960  Biso 1.000000     H
    H   1.0     0.121889     0.914614     0.926170  Biso 1.000000     H
    H   1.0     0.621872     0.914614     0.926169  Biso 1.000000     H
    H   1.0     0.179452     0.844978     0.016261  Biso 1.000000     H
    H   1.0     0.679435     0.844978     0.016261  Biso 1.000000     H
    H   1.0     0.315662     0.228046     0.549963  Biso 1.000000     H
    H   1.0     0.815645     0.228046     0.549963  Biso 1.000000     H
    H   1.0     0.065478     0.050177     0.771703  Biso 1.000000     H
    H   1.0     0.565460     0.050177     0.771703  Biso 1.000000     H
    H   1.0     0.429508     0.516231     0.154810  Biso 1.000000     H
    H   1.0     0.929488     0.516230     0.154809  Biso 1.000000     H
    H   1.0     0.007358     0.573603     0.489822  Biso 1.000000     H
    H   1.0     0.507341     0.573604     0.489822  Biso 1.000000     H
    H   1.0     0.006267     0.926372     0.010286  Biso 1.000000     H
    H   1.0     0.506250     0.926371     0.010285  Biso 1.000000     H
    H   1.0     0.126410     0.361326     0.927534  Biso 1.000000     H
    H   1.0     0.626393     0.361323     0.927536  Biso 1.000000     H
    H   1.0     0.452536     0.505872     0.580564  Biso 1.000000     H
    H   1.0     0.952518     0.505872     0.580564  Biso 1.000000     H
    H   1.0     0.218802     0.721445     0.350981  Biso 1.000000     H
    H   1.0     0.718784     0.721445     0.350981  Biso 1.000000     H
    H   1.0     0.281208     0.278562     0.649008  Biso 1.000000     H
    H   1.0     0.781190     0.278562     0.649009  Biso 1.000000     H
    H   1.0     0.378134     0.085367     0.073823  Biso 1.000000     H
    H   1.0     0.878115     0.085366     0.073822  Biso 1.000000     H
    H   1.0     0.218454     0.778441     0.149770  Biso 1.000000     H
    H   1.0     0.718436     0.778441     0.149771  Biso 1.000000     H
    H   1.0     0.376332     0.427454     0.638406  Biso 1.000000     H
    H   1.0     0.876315     0.427454     0.638406  Biso 1.000000     H
    H   1.0     0.375819     0.072475     0.861414  Biso 1.000000     H
    H   1.0     0.875802     0.072475     0.861414  Biso 1.000000     H
    H   1.0     0.125761     0.138308     0.572617  Biso 1.000000     H
    H   1.0     0.625744     0.138309     0.572616  Biso 1.000000     H
    H   1.0     0.122874     0.585406     0.573574  Biso 1.000000     H
    H   1.0     0.622856     0.585405     0.573573  Biso 1.000000     H
    H   1.0     0.127212     0.926519     0.585662  Biso 1.000000     H
    H   1.0     0.627198     0.926522     0.585659  Biso 1.000000     H
    H   1.0     0.372081     0.426123     0.085108  Biso 1.000000     H
    H   1.0     0.872063     0.426122     0.085107  Biso 1.000000     H
    H   1.0     0.377132     0.414585     0.426426  Biso 1.000000     H
    H   1.0     0.877115     0.414583     0.426424  Biso 1.000000     H
    H   1.0     0.451809     0.994129     0.919489  Biso 1.000000     H
    H   1.0     0.951792     0.994130     0.919490  Biso 1.000000     H
    H   1.0     0.433736     0.550122     0.271634  Biso 1.000000     H
    H   1.0     0.933723     0.550124     0.271635  Biso 1.000000     H
    H   1.0     0.242690     0.010050     0.573412  Biso 1.000000     H
    H   1.0     0.742674     0.010053     0.573409  Biso 1.000000     H
    H   1.0     0.047482     0.494134     0.419419  Biso 1.000000     H
    H   1.0     0.547467     0.494136     0.419420  Biso 1.000000     H
    H   1.0     0.123712     0.572548     0.361583  Biso 1.000000     H
    H   1.0     0.623693     0.572546     0.361579  Biso 1.000000     H
    H   1.0     0.257249     0.989957     0.426552  Biso 1.000000     H
    H   1.0     0.757231     0.989959     0.426550  Biso 1.000000     H
    H   1.0     0.031035     0.148991     0.721373  Biso 1.000000     H
    H   1.0     0.531018     0.148992     0.721374  Biso 1.000000     H
    H   1.0     0.202247     0.080652     0.494231  Biso 1.000000     H
    H   1.0     0.702230     0.080654     0.494228  Biso 1.000000     H
    H   1.0     0.430838     0.983504     0.344759  Biso 1.000000     H
    H   1.0     0.930823     0.983505     0.344757  Biso 1.000000     H
    H   1.0     0.374195     0.861688     0.427351  Biso 1.000000     H
    H   1.0     0.874179     0.861690     0.427349  Biso 1.000000     H
    C   1.0     0.294510     0.082876     0.054477  Biso 1.000000     C
    C   1.0     0.794491     0.082875     0.054476  Biso 1.000000     C
    C   1.0     0.238524     0.878081     0.995280  Biso 1.000000     C
    C   1.0     0.738508     0.878081     0.995279  Biso 1.000000     C
    C   1.0     0.363004     0.957889     0.197775  Biso 1.000000     C
    C   1.0     0.862985     0.957889     0.197775  Biso 1.000000     C
    C   1.0     0.112793     0.802469     0.458035  Biso 1.000000     C
    C   1.0     0.612777     0.802469     0.458035  Biso 1.000000     C
    C   1.0     0.281931     0.539685     0.580486  Biso 1.000000     C
    C   1.0     0.781913     0.539684     0.580485  Biso 1.000000     C
    C   1.0     0.364724     0.073803     0.659307  Biso 1.000000     C
    C   1.0     0.864702     0.073800     0.659311  Biso 1.000000     C
    C   1.0     0.044394     0.554522     0.917290  Biso 1.000000     C
    C   1.0     0.544375     0.554520     0.917291  Biso 1.000000     C
    C   1.0     0.172060     0.492024     0.075650  Biso 1.000000     C
    C   1.0     0.672043     0.492025     0.075649  Biso 1.000000     C
    C   1.0     0.383330     0.840598     0.073888  Biso 1.000000     C
    C   1.0     0.883313     0.840598     0.073888  Biso 1.000000     C
    C   1.0     0.218084     0.460315     0.419507  Biso 1.000000     C
    C   1.0     0.718069     0.460316     0.419508  Biso 1.000000     C
    C   1.0     0.112443     0.698055     0.042235  Biso 1.000000     C
    C   1.0     0.612425     0.698055     0.042234  Biso 1.000000     C
    C   1.0     0.260226     0.378073     0.495443  Biso 1.000000     C
    C   1.0     0.760210     0.378072     0.495442  Biso 1.000000     C
    C   1.0     0.239765     0.621925     0.504553  Biso 1.000000     C
    C   1.0     0.739747     0.621925     0.504552  Biso 1.000000     C
    C   1.0     0.455707     0.445501     0.082694  Biso 1.000000     C
    C   1.0     0.955688     0.445500     0.082694  Biso 1.000000     C
    C   1.0     0.366740     0.426065     0.840541  Biso 1.000000     C
    C   1.0     0.866726     0.426064     0.840542  Biso 1.000000     C
    C   1.0     0.031407     0.419405     0.039592  Biso 1.000000     C
    C   1.0     0.531389     0.419406     0.039591  Biso 1.000000     C
    C   1.0     0.078167     0.075603     0.008039  Biso 1.000000     C
    C   1.0     0.578148     0.075602     0.008038  Biso 1.000000     C
    C   1.0     0.108500     0.463115     0.441577  Biso 1.000000     C
    C   1.0     0.608484     0.463114     0.441576  Biso 1.000000     C
    C   1.0     0.116749     0.159393     0.926085  Biso 1.000000     C
    C   1.0     0.616734     0.159389     0.926081  Biso 1.000000     C
    C   1.0     0.046082     0.346184     0.945639  Biso 1.000000     C
    C   1.0     0.546064     0.346184     0.945640  Biso 1.000000     C
    C   1.0     0.205513     0.917113     0.945515  Biso 1.000000     C
    C   1.0     0.705496     0.917113     0.945515  Biso 1.000000     C
    C   1.0     0.387600     0.301958     0.957759  Biso 1.000000     C
    C   1.0     0.887584     0.301956     0.957759  Biso 1.000000     C
    C   1.0     0.390653     0.963105     0.941585  Biso 1.000000     C
    C   1.0     0.890636     0.963105     0.941586  Biso 1.000000     C
    C   1.0     0.346821     0.881814     0.019744  Biso 1.000000     C
    C   1.0     0.846804     0.881814     0.019744  Biso 1.000000     C
    C   1.0     0.295490     0.054319     0.846312  Biso 1.000000     C
    C   1.0     0.795473     0.054319     0.846312  Biso 1.000000     C
    C   1.0     0.043555     0.945755     0.583050  Biso 1.000000     C
    C   1.0     0.543538     0.945755     0.583050  Biso 1.000000     C
    C   1.0     0.468665     0.580615     0.960378  Biso 1.000000     C
    C   1.0     0.968649     0.580615     0.960378  Biso 1.000000     C
    C   1.0     0.401812     0.019725     0.618191  Biso 1.000000     C
    C   1.0     0.901794     0.019727     0.618190  Biso 1.000000     C
    C   1.0     0.133415     0.573952     0.159412  Biso 1.000000     C
    C   1.0     0.633398     0.573954     0.159410  Biso 1.000000     C
    C   1.0     0.261513     0.121910     0.004711  Biso 1.000000     C
    C   1.0     0.761493     0.121909     0.004710  Biso 1.000000     C
    C   1.0     0.422925     0.575582     0.508075  Biso 1.000000     C
    C   1.0     0.922908     0.575582     0.508074  Biso 1.000000     C
    C   1.0     0.348128     0.618196     0.480219  Biso 1.000000     C
    C   1.0     0.848111     0.618196     0.480219  Biso 1.000000     C
    C   1.0     0.011495     0.504728     0.878221  Biso 1.000000     C
    C   1.0     0.511475     0.504727     0.878221  Biso 1.000000     C
    C   1.0     0.140945     0.441638     0.036919  Biso 1.000000     C
    C   1.0     0.640928     0.441638     0.036918  Biso 1.000000     C
    C   1.0     0.136988     0.042103     0.802220  Biso 1.000000     C
    C   1.0     0.636970     0.042103     0.802220  Biso 1.000000     C
    C   1.0     0.141296     0.058463     0.463142  Biso 1.000000     C
    C   1.0     0.641278     0.058465     0.463140  Biso 1.000000     C
    C   1.0     0.031701     0.080468     0.460216  Biso 1.000000     C
    C   1.0     0.531682     0.080468     0.460217  Biso 1.000000     C
    C   1.0     0.403183     0.480226     0.881813  Biso 1.000000     C
    C   1.0     0.903168     0.480226     0.881813  Biso 1.000000     C
    C   1.0     0.453965     0.653818     0.054343  Biso 1.000000     C
    C   1.0     0.953948     0.653819     0.054343  Biso 1.000000     C
    C   1.0     0.296129     0.445668     0.653571  Biso 1.000000     C
    C   1.0     0.796112     0.445668     0.653571  Biso 1.000000     C
    C   1.0     0.362297     0.542067     0.302221  Biso 1.000000     C
    C   1.0     0.862282     0.542067     0.302221  Biso 1.000000     C
    C   1.0     0.387164     0.197538     0.541944  Biso 1.000000     C
    C   1.0     0.887146     0.197537     0.541944  Biso 1.000000     C
    C   1.0     0.385175     0.659375     0.426137  Biso 1.000000     C
    C   1.0     0.885157     0.659373     0.426136  Biso 1.000000     C
    C   1.0     0.135200     0.926192     0.340672  Biso 1.000000     C
    C   1.0     0.635180     0.926192     0.340672  Biso 1.000000     C
    C   1.0     0.010211     0.995478     0.622050  Biso 1.000000     C
    C   1.0     0.510195     0.995479     0.622049  Biso 1.000000     C
    C   1.0     0.137751     0.457928     0.697781  Biso 1.000000     C
    C   1.0     0.637735     0.457928     0.697782  Biso 1.000000     C
    C   1.0     0.456383     0.054254     0.416918  Biso 1.000000     C
    C   1.0     0.956367     0.054254     0.416917  Biso 1.000000     C
    C   1.0     0.114827     0.340649     0.573872  Biso 1.000000     C
    C   1.0     0.614813     0.340650     0.573872  Biso 1.000000     C
    C   1.0     0.281110     0.960307     0.919407  Biso 1.000000     C
    C   1.0     0.781093     0.960307     0.919407  Biso 1.000000     C
    C   1.0     0.488633     0.495293     0.121760  Biso 1.000000     C
    C   1.0     0.988614     0.495292     0.121760  Biso 1.000000     C
    C   1.0     0.172822     0.008151     0.424479  Biso 1.000000     C
    C   1.0     0.672804     0.008152     0.424478  Biso 1.000000     C
    C   1.0     0.489723     0.004529     0.377919  Biso 1.000000     C
    C   1.0     0.989708     0.004529     0.377918  Biso 1.000000     C
    C   1.0     0.151847     0.381792     0.519756  Biso 1.000000     C
    C   1.0     0.651832     0.381792     0.519756  Biso 1.000000     C
    C   1.0     0.045574     0.153440     0.554335  Biso 1.000000     C
    C   1.0     0.545557     0.153441     0.554334  Biso 1.000000     C
    C   1.0     0.206529     0.582886     0.554297  Biso 1.000000     C
    C   1.0     0.706511     0.582886     0.554297  Biso 1.000000     C
    C   1.0     0.391510     0.536889     0.558408  Biso 1.000000     C
    C   1.0     0.891493     0.536888     0.558408  Biso 1.000000     C
    C   1.0     0.293473     0.417107     0.445698  Biso 1.000000     C
    C   1.0     0.793457     0.417105     0.445696  Biso 1.000000     C
    C   1.0     0.359133     0.558372     0.963041  Biso 1.000000     C
    C   1.0     0.859116     0.558373     0.963039  Biso 1.000000     C
    C   1.0     0.218904     0.039683     0.080578  Biso 1.000000     C
    C   1.0     0.718886     0.039682     0.080577  Biso 1.000000     C
    C   1.0     0.203916     0.554332     0.346424  Biso 1.000000     C
    C   1.0     0.703900     0.554331     0.346422  Biso 1.000000     C
    C   1.0     0.421860     0.924398     0.991943  Biso 1.000000     C
    C   1.0     0.921842     0.924399     0.991944  Biso 1.000000     C
    C   1.0     0.204506     0.945673     0.153675  Biso 1.000000     C
    C   1.0     0.704487     0.945673     0.153675  Biso 1.000000     C
    C   1.0     0.358648     0.941546     0.536822  Biso 1.000000     C
    C   1.0     0.858631     0.941548     0.536820  Biso 1.000000     C
    C   1.0     0.153210     0.118195     0.980253  Biso 1.000000     C
    C   1.0     0.653187     0.118198     0.980255  Biso 1.000000     C
    C   1.0     0.096953     0.519777     0.118164  Biso 1.000000     C
    C   1.0     0.596938     0.519776     0.118165  Biso 1.000000     C
    C   1.0     0.077072     0.424425     0.491910  Biso 1.000000     C
    C   1.0     0.577057     0.424425     0.491910  Biso 1.000000     C
    C   1.0     0.468241     0.919539     0.539750  Biso 1.000000     C
    C   1.0     0.968222     0.919538     0.539752  Biso 1.000000     C
    C   1.0     0.454382     0.846559     0.445635  Biso 1.000000     C
    C   1.0     0.954363     0.846560     0.445635  Biso 1.000000     C
    C   1.0     0.327119     0.991857     0.575486  Biso 1.000000     C
    C   1.0     0.827101     0.991859     0.575484  Biso 1.000000     C
    C   1.0     0.098133     0.980290     0.381767  Biso 1.000000     C
    C   1.0     0.598113     0.980290     0.381767  Biso 1.000000     C
    C   1.0     0.328043     0.507984     0.924305  Biso 1.000000     C
    C   1.0     0.828027     0.507984     0.924305  Biso 1.000000     C
    C   1.0     0.109360     0.036895     0.058398  Biso 1.000000     C
    C   1.0     0.609342     0.036893     0.058397  Biso 1.000000     C
    N   1.0     0.392785     0.342331     0.005856  Biso 1.000000     N
    N   1.0     0.892771     0.342327     0.005858  Biso 1.000000     N
    N   1.0     0.142340     0.993967     0.842482  Biso 1.000000     N
    N   1.0     0.642323     0.993966     0.842482  Biso 1.000000     N
    N   1.0     0.479139     0.196779     0.580421  Biso 1.000000     N
    N   1.0     0.979121     0.196778     0.580422  Biso 1.000000     N
    N   1.0     0.229847     0.419579     0.697024  Biso 1.000000     N
    N   1.0     0.729830     0.419579     0.697024  Biso 1.000000     N
    N   1.0     0.143133     0.506043     0.657469  Biso 1.000000     N
    N   1.0     0.643115     0.506042     0.657468  Biso 1.000000     N
    N   1.0     0.255173     0.998046     0.129460  Biso 1.000000     N
    N   1.0     0.755154     0.998047     0.129461  Biso 1.000000     N
    N   1.0     0.245535     0.498023     0.629358  Biso 1.000000     N
    N   1.0     0.745518     0.498023     0.629358  Biso 1.000000     N
    N   1.0     0.244825     0.001948     0.870532  Biso 1.000000     N
    N   1.0     0.744807     0.001948     0.870532  Biso 1.000000     N
    N   1.0     0.270211     0.580422     0.302978  Biso 1.000000     N
    N   1.0     0.770195     0.580422     0.302977  Biso 1.000000     N
    N   1.0     0.356903     0.493950     0.342532  Biso 1.000000     N
    N   1.0     0.856891     0.493952     0.342534  Biso 1.000000     N
    N   1.0     0.495254     0.370452     0.997911  Biso 1.000000     N
    N   1.0     0.995237     0.370453     0.997910  Biso 1.000000     N
    N   1.0     0.254491     0.501968     0.370631  Biso 1.000000     N
    N   1.0     0.754474     0.501967     0.370629  Biso 1.000000     N
    N   1.0     0.020826     0.803225     0.419551  Biso 1.000000     N
    N   1.0     0.520809     0.803224     0.419552  Biso 1.000000     N
    N   1.0     0.020178     0.697310     0.080481  Biso 1.000000     N
    N   1.0     0.520160     0.697309     0.080481  Biso 1.000000     N
    N   1.0     0.229163     0.080456     0.802940  Biso 1.000000     N
    N   1.0     0.729145     0.080456     0.802940  Biso 1.000000     N
    N   1.0     0.107232     0.842692     0.506221  Biso 1.000000     N
    N   1.0     0.607218     0.842694     0.506220  Biso 1.000000     N
    N   1.0     0.479866     0.302688     0.919512  Biso 1.000000     N
    N   1.0     0.979850     0.302688     0.919512  Biso 1.000000     N
    N   1.0     0.357660     0.006024     0.157510  Biso 1.000000     N
    N   1.0     0.857642     0.006023     0.157509  Biso 1.000000     N
    N   1.0     0.495142     0.129287     0.501860  Biso 1.000000     N
    N   1.0     0.995124     0.129285     0.501861  Biso 1.000000     N
    N   1.0     0.107262     0.657695     0.994127  Biso 1.000000     N
    N   1.0     0.607242     0.657696     0.994126  Biso 1.000000     N
    N   1.0     0.004808     0.870724     0.498106  Biso 1.000000     N
    N   1.0     0.504790     0.870723     0.498107  Biso 1.000000     N
    N   1.0     0.004804     0.629560     0.002072  Biso 1.000000     N
    N   1.0     0.504787     0.629558     0.002072  Biso 1.000000     N
    N   1.0     0.392713     0.157317     0.493756  Biso 1.000000     N
    N   1.0     0.892697     0.157317     0.493755  Biso 1.000000     N
    N   1.0     0.270827     0.919538     0.197052  Biso 1.000000     N
    N   1.0     0.770808     0.919538     0.197051  Biso 1.000000     N
    O   1.0     0.227508     0.599923     0.147190  Biso 1.000000     O
    O   1.0     0.727494     0.599922     0.147191  Biso 1.000000     O
    O   1.0     0.323570     0.705168     0.408506  Biso 1.000000     O
    O   1.0     0.823554     0.705169     0.408506  Biso 1.000000     O
    O   1.0     0.425272     0.687712     0.233801  Biso 1.000000     O
    O   1.0     0.925255     0.687714     0.233801  Biso 1.000000     O
    O   1.0     0.479285     0.647040     0.400320  Biso 1.000000     O
    O   1.0     0.979269     0.647040     0.400321  Biso 1.000000     O
    O   1.0     0.020684     0.352959     0.599660  Biso 1.000000     O
    O   1.0     0.520668     0.352959     0.599659  Biso 1.000000     O
    O   1.0     0.426314     0.091498     0.705118  Biso 1.000000     O
    O   1.0     0.926298     0.091499     0.705117  Biso 1.000000     O
    O   1.0     0.071365     0.591445     0.205050  Biso 1.000000     O
    O   1.0     0.571352     0.591444     0.205051  Biso 1.000000     O
    O   1.0     0.176398     0.294828     0.591475  Biso 1.000000     O
    O   1.0     0.676381     0.294828     0.591474  Biso 1.000000     O
    O   1.0     0.073634     0.908511     0.294846  Biso 1.000000     O
    O   1.0     0.573615     0.908512     0.294846  Biso 1.000000     O
    O   1.0     0.074212     0.186930     0.733597  Biso 1.000000     O
    O   1.0     0.574194     0.186931     0.733597  Biso 1.000000     O
    O   1.0     0.477423     0.852901     0.099836  Biso 1.000000     O
    O   1.0     0.977405     0.852901     0.099836  Biso 1.000000     O
    O   1.0     0.175337     0.766307     0.187757  Biso 1.000000     O
    O   1.0     0.675319     0.766307     0.187757  Biso 1.000000     O
    O   1.0     0.324679     0.233693     0.812227  Biso 1.000000     O
    O   1.0     0.824662     0.233693     0.812229  Biso 1.000000     O
    O   1.0     0.425777     0.813027     0.266376  Biso 1.000000     O
    O   1.0     0.925759     0.813029     0.266376  Biso 1.000000     O
    O   1.0     0.321255     0.794970     0.091449  Biso 1.000000     O
    O   1.0     0.821237     0.794970     0.091450  Biso 1.000000     O
    O   1.0     0.175727     0.733720     0.313044  Biso 1.000000     O
    O   1.0     0.675710     0.733720     0.313044  Biso 1.000000     O
    O   1.0     0.428856     0.408557     0.794941  Biso 1.000000     O
    O   1.0     0.928841     0.408557     0.794940  Biso 1.000000     O
    O   1.0     0.229357     0.900447     0.353063  Biso 1.000000     O
    O   1.0     0.729337     0.900448     0.353063  Biso 1.000000     O
    O   1.0     0.272662     0.400073     0.852771  Biso 1.000000     O
    O   1.0     0.772647     0.400074     0.852770  Biso 1.000000     O
    O   1.0     0.178821     0.205029     0.908545  Biso 1.000000     O
    O   1.0     0.678799     0.205030     0.908547  Biso 1.000000     O
    O   1.0     0.270578     0.099558     0.646912  Biso 1.000000     O
    O   1.0     0.770562     0.099560     0.646911  Biso 1.000000     O
    O   1.0     0.074772     0.312227     0.766180  Biso 1.000000     O
    O   1.0     0.574754     0.312229     0.766180  Biso 1.000000     O
    O   1.0     0.022628     0.147117     0.900153  Biso 1.000000     O
    O   1.0     0.522606     0.147118     0.900155  Biso 1.000000     O
    O   1.0     0.324283     0.266281     0.686942  Biso 1.000000     O
    O   1.0     0.824265     0.266281     0.686943  Biso 1.000000     O
   Cd   1.0     0.238078     0.829994     0.267588  Biso 1.000000    Cd
   Cd   1.0     0.738060     0.829994     0.267588  Biso 1.000000    Cd
   Cd   1.0     0.487912     0.732875     0.330042  Biso 1.000000    Cd
   Cd   1.0     0.987895     0.732876     0.330042  Biso 1.000000    Cd
   Cd   1.0     0.261911     0.170006     0.732400  Biso 1.000000    Cd
   Cd   1.0     0.761893     0.170006     0.732401  Biso 1.000000    Cd
   Cd   1.0     0.237484     0.670028     0.232835  Biso 1.000000    Cd
   Cd   1.0     0.737467     0.670028     0.232835  Biso 1.000000    Cd
   Cd   1.0     0.012384     0.232337     0.829885  Biso 1.000000    Cd
   Cd   1.0     0.512366     0.232338     0.829885  Biso 1.000000    Cd
   Cd   1.0     0.487622     0.767633     0.170094  Biso 1.000000    Cd
   Cd   1.0     0.987605     0.767634     0.170094  Biso 1.000000    Cd
   Cd   1.0     0.012101     0.267099     0.669937  Biso 1.000000    Cd
   Cd   1.0     0.512083     0.267100     0.669937  Biso 1.000000    Cd
   Cd   1.0     0.262553     0.329971     0.767154  Biso 1.000000    Cd
   Cd   1.0     0.762536     0.329971     0.767155  Biso 1.000000    Cd
