#======================================================================

# CRYSTAL DATA

#----------------------------------------------------------------------

data_VESTA_phase_1


_pd_phase_name                         MOF
_cell_length_a                         22.69400
_cell_length_b                         12.28700
_cell_length_c                         12.28700
_cell_angle_alpha                      69.03100
_cell_angle_beta                       72.07200
_cell_angle_gamma                      107.92800
_symmetry_space_group_name_H-M         "P 1"
_symmetry_Int_Tables_number            1

loop_
_symmetry_equiv_pos_as_xyz
   "x, y, z"

loop_
   _atom_site_label
   _atom_site_occupancy
   _atom_site_fract_x
   _atom_site_fract_y
   _atom_site_fract_z
   _atom_site_adp_type
   _atom_site_B_iso_or_equiv
   _atom_site_type_symbol
    H   1.0     0.151423     0.734544     0.938251  Biso 1.000000     H
    H   1.0     0.651746     0.733953     0.938085  Biso 1.000000     H
    H   1.0     0.197059     0.868094     0.771300  Biso 1.000000     H
    H   1.0     0.698631     0.871601     0.773201  Biso 1.000000     H
    H   1.0     0.142724     0.706110     0.810936  Biso 1.000000     H
    H   1.0     0.644897     0.712177     0.806457  Biso 1.000000     H
    H   1.0     0.448920     0.795406     0.668613  Biso 1.000000     H
    H   1.0     0.950091     0.798157     0.666653  Biso 1.000000     H
    H   1.0     0.416816     0.727864     0.579990  Biso 1.000000     H
    H   1.0     0.917603     0.728349     0.579784  Biso 1.000000     H
    H   1.0     0.435529     0.892985     0.538811  Biso 1.000000     H
    H   1.0     0.936298     0.893792     0.536543  Biso 1.000000     H
    H   1.0     0.122521     0.938508     0.318603  Biso 1.000000     H
    H   1.0     0.621811     0.938163     0.320253  Biso 1.000000     H
    H   1.0     0.084757     0.771526     0.352058  Biso 1.000000     H
    H   1.0     0.584932     0.771876     0.351414  Biso 1.000000     H
    H   1.0     0.050046     0.811264     0.474219  Biso 1.000000     H
    H   1.0     0.549093     0.809216     0.474907  Biso 1.000000     H
    H   1.0     0.285510     0.671392     0.530307  Biso 1.000000     H
    H   1.0     0.782695     0.665931     0.533780  Biso 1.000000     H
    H   1.0     0.207347     0.578179     0.684263  Biso 1.000000     H
    H   1.0     0.706059     0.579239     0.689386  Biso 1.000000     H
    H   1.0     0.209336     0.542208     0.555941  Biso 1.000000     H
    H   1.0     0.704094     0.536476     0.566430  Biso 1.000000     H
    H   1.0     0.283184     0.322443     0.732732  Biso 1.000000     H
    H   1.0     0.782876     0.321400     0.735940  Biso 1.000000     H
    H   1.0     0.261756     0.353383     0.867940  Biso 1.000000     H
    H   1.0     0.762272     0.355946     0.868763  Biso 1.000000     H
    H   1.0     0.288503     0.477529     0.706823  Biso 1.000000     H
    H   1.0     0.788623     0.477487     0.706634  Biso 1.000000     H
    H   1.0     0.052745     0.531796     0.790265  Biso 1.000000     H
    H   1.0     0.551752     0.531203     0.790901  Biso 1.000000     H
    H   1.0     0.052428     0.686544     0.728274  Biso 1.000000     H
    H   1.0     0.549914     0.684649     0.731756  Biso 1.000000     H
    H   1.0     0.487993     0.555168     0.895646  Biso 1.000000     H
    H   1.0     0.989311     0.559323     0.892861  Biso 1.000000     H
    H   1.0     0.347302     0.261193     0.060068  Biso 1.000000     H
    H   1.0     0.847300     0.261529     0.057707  Biso 1.000000     H
    H   1.0     0.301376     0.126983     0.226751  Biso 1.000000     H
    H   1.0     0.800667     0.125635     0.223610  Biso 1.000000     H
    H   1.0     0.355239     0.288673     0.188346  Biso 1.000000     H
    H   1.0     0.855162     0.285907     0.187523  Biso 1.000000     H
    H   1.0     0.049520     0.201193     0.330528  Biso 1.000000     H
    H   1.0     0.550100     0.202249     0.328982  Biso 1.000000     H
    H   1.0     0.082664     0.269319     0.417922  Biso 1.000000     H
    H   1.0     0.583135     0.271187     0.415887  Biso 1.000000     H
    H   1.0     0.063220     0.103843     0.459929  Biso 1.000000     H
    H   1.0     0.563774     0.105517     0.458652  Biso 1.000000     H
    H   1.0     0.377810     0.060232     0.675363  Biso 1.000000     H
    H   1.0     0.878013     0.059169     0.673102  Biso 1.000000     H
    H   1.0     0.414399     0.226573     0.644022  Biso 1.000000     H
    H   1.0     0.913226     0.224054     0.645987  Biso 1.000000     H
    H   1.0     0.449933     0.189540     0.520101  Biso 1.000000     H
    H   1.0     0.950453     0.191159     0.519623  Biso 1.000000     H
    H   1.0     0.214926     0.329927     0.465348  Biso 1.000000     H
    H   1.0     0.713288     0.325170     0.465759  Biso 1.000000     H
    H   1.0     0.291328     0.416535     0.309298  Biso 1.000000     H
    H   1.0     0.791378     0.419071     0.311548  Biso 1.000000     H
    H   1.0     0.293681     0.459709     0.431736  Biso 1.000000     H
    H   1.0     0.789303     0.454811     0.440005  Biso 1.000000     H
    H   1.0     0.215965     0.675339     0.259913  Biso 1.000000     H
    H   1.0     0.716508     0.680416     0.256206  Biso 1.000000     H
    H   1.0     0.236895     0.642845     0.125658  Biso 1.000000     H
    H   1.0     0.737074     0.642324     0.125939  Biso 1.000000     H
    H   1.0     0.210632     0.519941     0.287041  Biso 1.000000     H
    H   1.0     0.710458     0.523395     0.289493  Biso 1.000000     H
    H   1.0     0.448065     0.462740     0.201076  Biso 1.000000     H
    H   1.0     0.947179     0.464091     0.202145  Biso 1.000000     H
    H   1.0     0.447563     0.307683     0.269860  Biso 1.000000     H
    H   1.0     0.945675     0.308109     0.270617  Biso 1.000000     H
    H   1.0     0.009808     0.431088     0.104983  Biso 1.000000     H
    H   1.0     0.510717     0.430832     0.104151  Biso 1.000000     H
    C   1.0     0.179788     0.763167     0.834285  Biso 1.000000     C
    C   1.0     0.681104     0.766020     0.833364  Biso 1.000000     C
    C   1.0     0.240784     0.736538     0.810582  Biso 1.000000     C
    C   1.0     0.742008     0.739107     0.809405  Biso 1.000000     C
    C   1.0     0.342006     0.748344     0.718026  Biso 1.000000     C
    C   1.0     0.843017     0.750196     0.716666  Biso 1.000000     C
    C   1.0     0.414909     0.793640     0.621145  Biso 1.000000     C
    C   1.0     0.915833     0.795109     0.619702  Biso 1.000000     C
    C   1.0     0.098854     0.834538     0.394015  Biso 1.000000     C
    C   1.0     0.598318     0.833897     0.394697  Biso 1.000000     C
    C   1.0     0.147841     0.810806     0.444794  Biso 1.000000     C
    C   1.0     0.647135     0.810062     0.445939  Biso 1.000000     C
    C   1.0     0.203030     0.718878     0.525374  Biso 1.000000     C
    C   1.0     0.701259     0.716924     0.528919  Biso 1.000000     C
    C   1.0     0.227815     0.622490     0.576623  Biso 1.000000     C
    C   1.0     0.724974     0.619412     0.582466  Biso 1.000000     C
    C   1.0     0.297074     0.396633     0.762808  Biso 1.000000     C
    C   1.0     0.797212     0.397245     0.763871  Biso 1.000000     C
    C   1.0     0.371338     0.446526     0.736436  Biso 1.000000     C
    C   1.0     0.871626     0.447660     0.736549  Biso 1.000000     C
    C   1.0     0.466625     0.525903     0.748790  Biso 1.000000     C
    C   1.0     0.967306     0.528046     0.747363  Biso 1.000000     C
    C   1.0     0.018655     0.579093     0.792199  Biso 1.000000     C
    C   1.0     0.516897     0.576834     0.794316  Biso 1.000000     C
    C   1.0     0.318561     0.231950     0.164125  Biso 1.000000     C
    C   1.0     0.818442     0.231089     0.162102  Biso 1.000000     C
    C   1.0     0.257486     0.258310     0.187356  Biso 1.000000     C
    C   1.0     0.757804     0.258773     0.185858  Biso 1.000000     C
    C   1.0     0.156449     0.247262     0.279796  Biso 1.000000     C
    C   1.0     0.657063     0.248649     0.278532  Biso 1.000000     C
    C   1.0     0.083892     0.202982     0.377207  Biso 1.000000     C
    C   1.0     0.584455     0.204473     0.375702  Biso 1.000000     C
    C   1.0     0.400838     0.164360     0.601003  Biso 1.000000     C
    C   1.0     0.900770     0.163851     0.600555  Biso 1.000000     C
    C   1.0     0.351413     0.187192     0.551103  Biso 1.000000     C
    C   1.0     0.851632     0.187190     0.550048  Biso 1.000000     C
    C   1.0     0.296638     0.279353     0.469251  Biso 1.000000     C
    C   1.0     0.796109     0.278600     0.469991  Biso 1.000000     C
    C   1.0     0.272645     0.376519     0.416141  Biso 1.000000     C
    C   1.0     0.771002     0.374567     0.419187  Biso 1.000000     C
    C   1.0     0.201886     0.600415     0.230785  Biso 1.000000     C
    C   1.0     0.702068     0.602954     0.230339  Biso 1.000000     C
    C   1.0     0.127477     0.549968     0.258074  Biso 1.000000     C
    C   1.0     0.627698     0.552046     0.257312  Biso 1.000000     C
    C   1.0     0.031729     0.467789     0.248066  Biso 1.000000     C
    C   1.0     0.532167     0.468965     0.246913  Biso 1.000000     C
    C   1.0     0.481762     0.414740     0.203119  Biso 1.000000     C
    C   1.0     0.980363     0.414968     0.204054  Biso 1.000000     C
    N   1.0     0.306392     0.641733     0.839203  Biso 1.000000     N
    N   1.0     0.807319     0.643417     0.837709  Biso 1.000000     N
    N   1.0     0.241270     0.633946     0.898782  Biso 1.000000     N
    N   1.0     0.742358     0.636178     0.897392  Biso 1.000000     N
    N   1.0     0.302702     0.809963     0.696367  Biso 1.000000     N
    N   1.0     0.803944     0.812513     0.695191  Biso 1.000000     N
    N   1.0     0.227124     0.839314     0.512636  Biso 1.000000     N
    N   1.0     0.726638     0.838612     0.513134  Biso 1.000000     N
    N   1.0     0.191617     0.898472     0.460923  Biso 1.000000     N
    N   1.0     0.691835     0.898552     0.459861  Biso 1.000000     N
    N   1.0     0.153375     0.697313     0.484173  Biso 1.000000     N
    N   1.0     0.651414     0.695376     0.488298  Biso 1.000000     N
    N   1.0     0.484393     0.512843     0.641275  Biso 1.000000     N
    N   1.0     0.984717     0.514499     0.640147  Biso 1.000000     N
    N   1.0     0.423170     0.461906     0.633177  Biso 1.000000     N
    N   1.0     0.923239     0.462941     0.633013  Biso 1.000000     N
    N   1.0     0.396442     0.485608     0.810830  Biso 1.000000     N
    N   1.0     0.897132     0.487474     0.810155  Biso 1.000000     N
    N   1.0     0.191809     0.352757     0.157912  Biso 1.000000     N
    N   1.0     0.692888     0.355351     0.157401  Biso 1.000000     N
    N   1.0     0.256819     0.360068     0.098413  Biso 1.000000     N
    N   1.0     0.757718     0.362042     0.097744  Biso 1.000000     N
    N   1.0     0.195804     0.185878     0.301948  Biso 1.000000     N
    N   1.0     0.695899     0.185815     0.300040  Biso 1.000000     N
    N   1.0     0.271129     0.157328     0.485914  Biso 1.000000     N
    N   1.0     0.772035     0.158037     0.483040  Biso 1.000000     N
    N   1.0     0.306313     0.097970     0.538527  Biso 1.000000     N
    N   1.0     0.807727     0.099185     0.534443  Biso 1.000000     N
    N   1.0     0.347026     0.301776     0.508514  Biso 1.000000     N
    N   1.0     0.845967     0.300581     0.510679  Biso 1.000000     N
    N   1.0     0.014539     0.484123     0.353631  Biso 1.000000     N
    N   1.0     0.514653     0.485456     0.352374  Biso 1.000000     N
    N   1.0     0.076049     0.536848     0.360244  Biso 1.000000     N
    N   1.0     0.576032     0.538756     0.359253  Biso 1.000000     N
    N   1.0     0.101782     0.507476     0.186049  Biso 1.000000     N
    N   1.0     0.602303     0.509169     0.185176  Biso 1.000000     N
   Zn   1.0     0.346757     0.538972     0.945020  Biso 1.000000    Zn
   Zn   1.0     0.847692     0.540881     0.944550  Biso 1.000000    Zn
   Zn   1.0     0.320448     0.946038     0.509511  Biso 1.000000    Zn
   Zn   1.0     0.820296     0.945225     0.508254  Biso 1.000000    Zn
   Zn   1.0     0.076859     0.509490     0.537879  Biso 1.000000    Zn
   Zn   1.0     0.575928     0.508801     0.538240  Biso 1.000000    Zn
   Zn   1.0     0.151353     0.454531     0.051386  Biso 1.000000    Zn
   Zn   1.0     0.652647     0.457041     0.050352  Biso 1.000000    Zn
   Zn   1.0     0.178319     0.050890     0.488680  Biso 1.000000    Zn
   Zn   1.0     0.678331     0.051210     0.487403  Biso 1.000000    Zn
   Zn   1.0     0.423289     0.489266     0.455016  Biso 1.000000    Zn
   Zn   1.0     0.922534     0.488253     0.456136  Biso 1.000000    Zn
