#======================================================================

# CRYSTAL DATA

#----------------------------------------------------------------------

data_VESTA_phase_1


_pd_phase_name                         MOF
_cell_length_a                         15.51100
_cell_length_b                         15.50600
_cell_length_c                         15.52000
_cell_angle_alpha                      74.49000
_cell_angle_beta                       74.47200
_cell_angle_gamma                      74.52700
_symmetry_space_group_name_H-M         "P 1"
_symmetry_Int_Tables_number            1

loop_
_symmetry_equiv_pos_as_xyz
   "x, y, z"

loop_
   _atom_site_label
   _atom_site_occupancy
   _atom_site_fract_x
   _atom_site_fract_y
   _atom_site_fract_z
   _atom_site_adp_type
   _atom_site_B_iso_or_equiv
   _atom_site_type_symbol
    H   1.0     0.991630     0.297535     0.527191  Biso 1.000000     H
    H   1.0     0.527933     0.991002     0.297202  Biso 1.000000     H
    H   1.0     0.297193     0.527695     0.991348  Biso 1.000000     H
    H   1.0     0.702579     0.008981     0.472454  Biso 1.000000     H
    H   1.0     0.008916     0.472040     0.702881  Biso 1.000000     H
    H   1.0     0.472664     0.702632     0.008380  Biso 1.000000     H
    H   1.0     0.008411     0.702572     0.472815  Biso 1.000000     H
    H   1.0     0.472174     0.008979     0.702674  Biso 1.000000     H
    H   1.0     0.702836     0.472273     0.008707  Biso 1.000000     H
    H   1.0     0.297611     0.991026     0.527506  Biso 1.000000     H
    H   1.0     0.991025     0.528034     0.297093  Biso 1.000000     H
    H   1.0     0.527343     0.297315     0.991618  Biso 1.000000     H
    H   1.0     0.977018     0.265296     0.264905  Biso 1.000000     H
    H   1.0     0.265378     0.976492     0.265200  Biso 1.000000     H
    H   1.0     0.264836     0.265054     0.977188  Biso 1.000000     H
    H   1.0     0.734662     0.023537     0.734811  Biso 1.000000     H
    H   1.0     0.023052     0.734717     0.735129  Biso 1.000000     H
    H   1.0     0.735154     0.734952     0.022792  Biso 1.000000     H
    C   1.0     0.983457     0.271823     0.400314  Biso 1.000000     C
    C   1.0     0.988619     0.327159     0.455833  Biso 1.000000     C
    C   1.0     0.984752     0.172289     0.438628  Biso 1.000000     C
    C   1.0     0.400881     0.982883     0.271675  Biso 1.000000     C
    C   1.0     0.456499     0.988092     0.326875  Biso 1.000000     C
    C   1.0     0.439061     0.984277     0.172192  Biso 1.000000     C
    C   1.0     0.271488     0.400607     0.983407  Biso 1.000000     C
    C   1.0     0.326788     0.456243     0.988529  Biso 1.000000     C
    C   1.0     0.172019     0.438896     0.984603  Biso 1.000000     C
    C   1.0     0.728195     0.017127     0.599380  Biso 1.000000     C
    C   1.0     0.672932     0.011899     0.543842  Biso 1.000000     C
    C   1.0     0.827739     0.015724     0.561136  Biso 1.000000     C
    C   1.0     0.016835     0.599161     0.728516  Biso 1.000000     C
    C   1.0     0.011695     0.543523     0.673270  Biso 1.000000     C
    C   1.0     0.015555     0.560920     0.827986  Biso 1.000000     C
    C   1.0     0.599659     0.728347     0.016455  Biso 1.000000     C
    C   1.0     0.544064     0.673024     0.011319  Biso 1.000000     C
    C   1.0     0.561346     0.827815     0.015266  Biso 1.000000     C
    C   1.0     0.016605     0.728232     0.599706  Biso 1.000000     C
    C   1.0     0.011412     0.672926     0.544172  Biso 1.000000     C
    C   1.0     0.015354     0.827758     0.561397  Biso 1.000000     C
    C   1.0     0.599187     0.017119     0.728274  Biso 1.000000     C
    C   1.0     0.543610     0.011898     0.673037  Biso 1.000000     C
    C   1.0     0.560970     0.015723     0.827757  Biso 1.000000     C
    C   1.0     0.728521     0.599382     0.016610  Biso 1.000000     C
    C   1.0     0.673230     0.543728     0.011507  Biso 1.000000     C
    C   1.0     0.827993     0.561106     0.015409  Biso 1.000000     C
    C   1.0     0.271916     0.982890     0.400610  Biso 1.000000     C
    C   1.0     0.327220     0.988107     0.456112  Biso 1.000000     C
    C   1.0     0.172371     0.984299     0.438878  Biso 1.000000     C
    C   1.0     0.983170     0.400878     0.271489  Biso 1.000000     C
    C   1.0     0.988280     0.456547     0.326720  Biso 1.000000     C
    C   1.0     0.984448     0.439100     0.172017  Biso 1.000000     C
    C   1.0     0.400339     0.271632     0.983531  Biso 1.000000     C
    C   1.0     0.455944     0.326937     0.988685  Biso 1.000000     C
    C   1.0     0.438649     0.172167     0.984697  Biso 1.000000     C
    C   1.0     0.990852     0.420328     0.419717  Biso 1.000000     C
    C   1.0     0.997025     0.476244     0.475795  Biso 1.000000     C
    C   1.0     0.980331     0.308575     0.308172  Biso 1.000000     C
    C   1.0     0.420326     0.990532     0.419922  Biso 1.000000     C
    C   1.0     0.476227     0.996920     0.475878  Biso 1.000000     C
    C   1.0     0.308645     0.979867     0.308429  Biso 1.000000     C
    C   1.0     0.419823     0.420044     0.991043  Biso 1.000000     C
    C   1.0     0.475903     0.476027     0.997139  Biso 1.000000     C
    C   1.0     0.308142     0.308343     0.980492  Biso 1.000000     C
    C   1.0     0.579825     0.009464     0.579993  Biso 1.000000     C
    C   1.0     0.523959     0.003070     0.524005  Biso 1.000000     C
    C   1.0     0.691427     0.020149     0.691555  Biso 1.000000     C
    C   1.0     0.009130     0.579766     0.580273  Biso 1.000000     C
    C   1.0     0.002939     0.523875     0.524181  Biso 1.000000     C
    C   1.0     0.019716     0.691460     0.691849  Biso 1.000000     C
    C   1.0     0.580195     0.579911     0.008989  Biso 1.000000     C
    C   1.0     0.524125     0.523912     0.002904  Biso 1.000000     C
    C   1.0     0.691856     0.691648     0.019501  Biso 1.000000     C
    O   1.0     0.978238     0.125556     0.384977  Biso 1.000000     O
    O   1.0     0.993776     0.141271     0.521556  Biso 1.000000     O
    O   1.0     0.385202     0.977953     0.125596  Biso 1.000000     O
    O   1.0     0.522063     0.993240     0.141067  Biso 1.000000     O
    O   1.0     0.125451     0.384998     0.978231  Biso 1.000000     O
    O   1.0     0.141157     0.521947     0.993367  Biso 1.000000     O
    O   1.0     0.874447     0.022062     0.614876  Biso 1.000000     O
    O   1.0     0.858795     0.006754     0.478184  Biso 1.000000     O
    O   1.0     0.021945     0.614859     0.874457  Biso 1.000000     O
    O   1.0     0.006679     0.477887     0.858954  Biso 1.000000     O
    O   1.0     0.615082     0.874548     0.021700  Biso 1.000000     O
    O   1.0     0.478310     0.858771     0.006488  Biso 1.000000     O
    O   1.0     0.021803     0.874493     0.615078  Biso 1.000000     O
    O   1.0     0.006427     0.858764     0.478441  Biso 1.000000     O
    O   1.0     0.614819     0.022037     0.874370  Biso 1.000000     O
    O   1.0     0.477969     0.006751     0.858867  Biso 1.000000     O
    O   1.0     0.874558     0.615010     0.021770  Biso 1.000000     O
    O   1.0     0.858858     0.478053     0.006649  Biso 1.000000     O
    O   1.0     0.125650     0.977989     0.385136  Biso 1.000000     O
    O   1.0     0.141333     0.993253     0.521836  Biso 1.000000     O
    O   1.0     0.978070     0.385150     0.125552  Biso 1.000000     O
    O   1.0     0.993321     0.522134     0.141042  Biso 1.000000     O
    O   1.0     0.384903     0.125435     0.978278  Biso 1.000000     O
    O   1.0     0.521695     0.141218     0.993437  Biso 1.000000     O
   Cu   1.0     0.991716     0.991654     0.426641  Biso 1.000000    Cu
   Cu   1.0     0.426557     0.991598     0.991761  Biso 1.000000    Cu
   Cu   1.0     0.991633     0.426337     0.991766  Biso 1.000000    Cu
   Cu   1.0     0.008401     0.008387     0.573379  Biso 1.000000    Cu
   Cu   1.0     0.008380     0.573674     0.008236  Biso 1.000000    Cu
   Cu   1.0     0.573456     0.008389     0.008187  Biso 1.000000    Cu
