#======================================================================

# CRYSTAL DATA

#----------------------------------------------------------------------

data_VESTA_phase_1


_pd_phase_name                         MOF
_cell_length_a                         17.02100
_cell_length_b                         13.23900
_cell_length_c                         13.27900
_cell_angle_alpha                      89.58800
_cell_angle_beta                       89.98500
_cell_angle_gamma                      89.88400
_symmetry_space_group_name_H-M         "P 1"
_symmetry_Int_Tables_number            1

loop_
_symmetry_equiv_pos_as_xyz
   "x, y, z"

loop_
   _atom_site_label
   _atom_site_occupancy
   _atom_site_fract_x
   _atom_site_fract_y
   _atom_site_fract_z
   _atom_site_adp_type
   _atom_site_B_iso_or_equiv
   _atom_site_type_symbol
    C   1.0     0.310127     0.985082     0.193390  Biso 1.000000     C
    C   1.0     0.810129     0.985082     0.193390  Biso 1.000000     C
    C   1.0     0.397373     0.986859     0.193149  Biso 1.000000     C
    C   1.0     0.897375     0.986860     0.193149  Biso 1.000000     C
    C   1.0     0.310073     0.514994     0.306947  Biso 1.000000     C
    C   1.0     0.810074     0.514994     0.306947  Biso 1.000000     C
    C   1.0     0.397311     0.512997     0.307015  Biso 1.000000     C
    C   1.0     0.897312     0.512995     0.307014  Biso 1.000000     C
    C   1.0     0.310297     0.307147     0.986959  Biso 1.000000     C
    C   1.0     0.810299     0.307147     0.986957  Biso 1.000000     C
    C   1.0     0.397523     0.307133     0.988980  Biso 1.000000     C
    C   1.0     0.897524     0.307133     0.988979  Biso 1.000000     C
    C   1.0     0.310219     0.193762     0.514938  Biso 1.000000     C
    C   1.0     0.810221     0.193764     0.514939  Biso 1.000000     C
    C   1.0     0.397465     0.193330     0.512248  Biso 1.000000     C
    C   1.0     0.897466     0.193331     0.512249  Biso 1.000000     C
    C   1.0     0.189867     0.014910     0.806564  Biso 1.000000     C
    C   1.0     0.689868     0.014910     0.806564  Biso 1.000000     C
    C   1.0     0.102621     0.013137     0.806806  Biso 1.000000     C
    C   1.0     0.602622     0.013138     0.806807  Biso 1.000000     C
    C   1.0     0.189919     0.485002     0.693020  Biso 1.000000     C
    C   1.0     0.689921     0.485001     0.693020  Biso 1.000000     C
    C   1.0     0.102681     0.487008     0.692952  Biso 1.000000     C
    C   1.0     0.602682     0.487006     0.692951  Biso 1.000000     C
    C   1.0     0.189695     0.692845     0.013003  Biso 1.000000     C
    C   1.0     0.689696     0.692844     0.013002  Biso 1.000000     C
    C   1.0     0.102470     0.692859     0.010980  Biso 1.000000     C
    C   1.0     0.602471     0.692859     0.010979  Biso 1.000000     C
    C   1.0     0.189776     0.806252     0.485017  Biso 1.000000     C
    C   1.0     0.689777     0.806253     0.485017  Biso 1.000000     C
    C   1.0     0.102530     0.806682     0.487710  Biso 1.000000     C
    C   1.0     0.602532     0.806683     0.487711  Biso 1.000000     C
    N   1.0     0.442078     0.000000     0.112177  Biso 1.000000     N
    N   1.0     0.942079     0.000000     0.112177  Biso 1.000000     N
    N   1.0     0.441305     0.967100     0.275299  Biso 1.000000     N
    N   1.0     0.941307     0.967102     0.275299  Biso 1.000000     N
    N   1.0     0.016536     0.997190     0.146479  Biso 1.000000     N
    N   1.0     0.516537     0.997188     0.146478  Biso 1.000000     N
    N   1.0     0.016358     0.973818     0.244431  Biso 1.000000     N
    N   1.0     0.516359     0.973815     0.244431  Biso 1.000000     N
    N   1.0     0.442063     0.493639     0.387864  Biso 1.000000     N
    N   1.0     0.942065     0.493638     0.387864  Biso 1.000000     N
    N   1.0     0.441185     0.533004     0.224908  Biso 1.000000     N
    N   1.0     0.941187     0.533001     0.224907  Biso 1.000000     N
    N   1.0     0.016496     0.502127     0.353524  Biso 1.000000     N
    N   1.0     0.516496     0.502129     0.353525  Biso 1.000000     N
    N   1.0     0.016254     0.525888     0.255663  Biso 1.000000     N
    N   1.0     0.516255     0.525891     0.255665  Biso 1.000000     N
    N   1.0     0.442155     0.387949     0.000000  Biso 1.000000     N
    N   1.0     0.942156     0.387949     0.000000  Biso 1.000000     N
    N   1.0     0.441497     0.225055     0.968908  Biso 1.000000     N
    N   1.0     0.941498     0.225055     0.968907  Biso 1.000000     N
    N   1.0     0.016641     0.353617     0.999571  Biso 1.000000     N
    N   1.0     0.516642     0.353618     0.999572  Biso 1.000000     N
    N   1.0     0.016521     0.255797     0.975862  Biso 1.000000     N
    N   1.0     0.516522     0.255798     0.975863  Biso 1.000000     N
    N   1.0     0.442059     0.112397     0.492373  Biso 1.000000     N
    N   1.0     0.942060     0.112398     0.492374  Biso 1.000000     N
    N   1.0     0.441511     0.275167     0.532086  Biso 1.000000     N
    N   1.0     0.941513     0.275168     0.532087  Biso 1.000000     N
    N   1.0     0.016571     0.146399     0.500387  Biso 1.000000     N
    N   1.0     0.516572     0.146398     0.500386  Biso 1.000000     N
    N   1.0     0.016518     0.244159     0.524323  Biso 1.000000     N
    N   1.0     0.516519     0.244158     0.524322  Biso 1.000000     N
    N   1.0     0.057917    -0.005759     0.887777  Biso 1.000000     N
    N   1.0     0.557918    -0.005759     0.887778  Biso 1.000000     N
    N   1.0     0.058689     0.032902     0.724658  Biso 1.000000     N
    N   1.0     0.558690     0.032903     0.724658  Biso 1.000000     N
    N   1.0     0.483459     0.002811     0.853478  Biso 1.000000     N
    N   1.0     0.983460     0.002809     0.853478  Biso 1.000000     N
    N   1.0     0.483637     0.026190     0.755527  Biso 1.000000     N
    N   1.0     0.983637     0.026188     0.755527  Biso 1.000000     N
    N   1.0     0.057930     0.506373     0.612104  Biso 1.000000     N
    N   1.0     0.557931     0.506371     0.612103  Biso 1.000000     N
    N   1.0     0.058805     0.467002     0.775058  Biso 1.000000     N
    N   1.0     0.558807     0.466999     0.775057  Biso 1.000000     N
    N   1.0     0.483498     0.497886     0.646441  Biso 1.000000     N
    N   1.0     0.983498     0.497888     0.646442  Biso 1.000000     N
    N   1.0     0.483738     0.474119     0.744301  Biso 1.000000     N
    N   1.0     0.983739     0.474123     0.744302  Biso 1.000000     N
    N   1.0     0.057837     0.612043    -0.008240  Biso 1.000000     N
    N   1.0     0.557838     0.612042    -0.008241  Biso 1.000000     N
    N   1.0     0.058496     0.774938     0.031050  Biso 1.000000     N
    N   1.0     0.558497     0.774937     0.031049  Biso 1.000000     N
    N   1.0     0.483351     0.646374     0.000391  Biso 1.000000     N
    N   1.0     0.983352     0.646375     0.000391  Biso 1.000000     N
    N   1.0     0.483472     0.744195     0.024097  Biso 1.000000     N
    N   1.0     0.983473     0.744196     0.024097  Biso 1.000000     N
    N   1.0     0.057936     0.887614     0.507582  Biso 1.000000     N
    N   1.0     0.557937     0.887615     0.507583  Biso 1.000000     N
    N   1.0     0.058485     0.724842     0.467880  Biso 1.000000     N
    N   1.0     0.558487     0.724843     0.467881  Biso 1.000000     N
    N   1.0     0.483424     0.853612     0.499576  Biso 1.000000     N
    N   1.0     0.983425     0.853611     0.499575  Biso 1.000000     N
    N   1.0     0.483479     0.755850     0.475646  Biso 1.000000     N
    N   1.0     0.983479     0.755849     0.475645  Biso 1.000000     N
    O   1.0     0.276466     0.000000     0.108460  Biso 1.000000     O
    O   1.0     0.776467     0.000000     0.108461  Biso 1.000000     O
    O   1.0     0.275882     0.964398     0.274991  Biso 1.000000     O
    O   1.0     0.775884     0.964398     0.274991  Biso 1.000000     O
    O   1.0     0.276464     0.493856     0.391436  Biso 1.000000     O
    O   1.0     0.776465     0.493857     0.391436  Biso 1.000000     O
    O   1.0     0.275700     0.537593     0.225916  Biso 1.000000     O
    O   1.0     0.775701     0.537593     0.225915  Biso 1.000000     O
    O   1.0     0.276512     0.391614     0.000000  Biso 1.000000     O
    O   1.0     0.776513     0.391614     0.000000  Biso 1.000000     O
    O   1.0     0.276032     0.226211     0.964446  Biso 1.000000     O
    O   1.0     0.776033     0.226210     0.964446  Biso 1.000000     O
    O   1.0     0.276415     0.109394     0.494311  Biso 1.000000     O
    O   1.0     0.776416     0.109395     0.494311  Biso 1.000000     O
    O   1.0     0.276096     0.274962     0.537534  Biso 1.000000     O
    O   1.0     0.776097     0.274963     0.537534  Biso 1.000000     O
    O   1.0     0.223529    -0.004361     0.891491  Biso 1.000000     O
    O   1.0     0.723530    -0.004361     0.891492  Biso 1.000000     O
    O   1.0     0.224112     0.035595     0.724963  Biso 1.000000     O
    O   1.0     0.724113     0.035596     0.724963  Biso 1.000000     O
    O   1.0     0.223529     0.506139     0.608532  Biso 1.000000     O
    O   1.0     0.723530     0.506140     0.608532  Biso 1.000000     O
    O   1.0     0.224291     0.462396     0.774050  Biso 1.000000     O
    O   1.0     0.724292     0.462396     0.774050  Biso 1.000000     O
    O   1.0     0.223481     0.608379    -0.007903  Biso 1.000000     O
    O   1.0     0.723482     0.608379    -0.007905  Biso 1.000000     O
    O   1.0     0.223960     0.773779     0.035521  Biso 1.000000     O
    O   1.0     0.723961     0.773779     0.035520  Biso 1.000000     O
    O   1.0     0.223578     0.890627     0.505626  Biso 1.000000     O
    O   1.0     0.723580     0.890629     0.505627  Biso 1.000000     O
    O   1.0     0.223901     0.725048     0.462437  Biso 1.000000     O
    O   1.0     0.723902     0.725050     0.462437  Biso 1.000000     O
   Sr   1.0     0.356053     0.059049     0.950727  Biso 1.000000    Sr
   Sr   1.0     0.856054     0.059048     0.950727  Biso 1.000000    Sr
   Sr   1.0     0.356123     0.441560     0.549806  Biso 1.000000    Sr
   Sr   1.0     0.856124     0.441561     0.549806  Biso 1.000000    Sr
   Sr   1.0     0.355802     0.550098     0.059020  Biso 1.000000    Sr
   Sr   1.0     0.855803     0.550098     0.059019  Biso 1.000000    Sr
   Sr   1.0     0.355963     0.950866     0.441412  Biso 1.000000    Sr
   Sr   1.0     0.855965     0.950867     0.441412  Biso 1.000000    Sr
   Sr   1.0     0.143941     0.940944     0.049229  Biso 1.000000    Sr
   Sr   1.0     0.643942     0.940943     0.049229  Biso 1.000000    Sr
   Sr   1.0     0.143872     0.558447     0.450163  Biso 1.000000    Sr
   Sr   1.0     0.643874     0.558448     0.450163  Biso 1.000000    Sr
   Sr   1.0     0.144190     0.449894     0.940944  Biso 1.000000    Sr
   Sr   1.0     0.644191     0.449894     0.940943  Biso 1.000000    Sr
   Sr   1.0     0.144033     0.049147     0.558542  Biso 1.000000    Sr
   Sr   1.0     0.644035     0.049148     0.558543  Biso 1.000000    Sr
