#======================================================================

# CRYSTAL DATA

#----------------------------------------------------------------------

data_VESTA_phase_1


_pd_phase_name                         MOF
_cell_length_a                         18.87000
_cell_length_b                         17.46200
_cell_length_c                         18.30900
_cell_angle_alpha                      107.48300
_cell_angle_beta                       90.00300
_cell_angle_gamma                      89.99900
_symmetry_space_group_name_H-M         "P 1"
_symmetry_Int_Tables_number            1

loop_
_symmetry_equiv_pos_as_xyz
   "x, y, z"

loop_
   _atom_site_label
   _atom_site_occupancy
   _atom_site_fract_x
   _atom_site_fract_y
   _atom_site_fract_z
   _atom_site_adp_type
   _atom_site_B_iso_or_equiv
   _atom_site_type_symbol
    H   1.0    -0.021679     0.927809     0.685338  Biso 1.000000     H
    H   1.0     0.478275     0.927767     0.685350  Biso 1.000000     H
    H   1.0     0.026472     0.861832     0.627763  Biso 1.000000     H
    H   1.0     0.526453     0.861828     0.627763  Biso 1.000000     H
    H   1.0     0.155096     0.954935     0.855438  Biso 1.000000     H
    H   1.0     0.655104     0.954944     0.855423  Biso 1.000000     H
    H   1.0     0.151054     0.863692     0.852486  Biso 1.000000     H
    H   1.0     0.651058     0.863705     0.852488  Biso 1.000000     H
    H   1.0     0.241153     0.671749     0.860685  Biso 1.000000     H
    H   1.0     0.741155     0.671756     0.860684  Biso 1.000000     H
    H   1.0     0.241051     0.576678     0.840306  Biso 1.000000     H
    H   1.0     0.741044     0.576685     0.840307  Biso 1.000000     H
    H   1.0     0.379145     0.570239     0.622479  Biso 1.000000     H
    H   1.0     0.879146     0.570236     0.622479  Biso 1.000000     H
    H   1.0     0.406486     0.655999     0.665824  Biso 1.000000     H
    H   1.0     0.906483     0.655997     0.665827  Biso 1.000000     H
    H   1.0     0.228351     0.072227     0.814590  Biso 1.000000     H
    H   1.0     0.728351     0.072225     0.814595  Biso 1.000000     H
    H   1.0     0.276493     0.138217     0.872162  Biso 1.000000     H
    H   1.0     0.776492     0.138215     0.872167  Biso 1.000000     H
    H   1.0     0.405105     0.045109     0.644536  Biso 1.000000     H
    H   1.0     0.905079     0.045104     0.644509  Biso 1.000000     H
    H   1.0     0.401055     0.136351     0.647487  Biso 1.000000     H
    H   1.0     0.901048     0.136351     0.647488  Biso 1.000000     H
    H   1.0     0.491146     0.328292     0.639291  Biso 1.000000     H
    H   1.0     0.991141     0.328293     0.639292  Biso 1.000000     H
    H   1.0    -0.008955     0.423363     0.659678  Biso 1.000000     H
    H   1.0     0.491043     0.423364     0.659677  Biso 1.000000     H
    H   1.0     0.129157     0.429808     0.877494  Biso 1.000000     H
    H   1.0     0.629156     0.429808     0.877494  Biso 1.000000     H
    H   1.0     0.156491     0.344050     0.834144  Biso 1.000000     H
    H   1.0     0.656490     0.344049     0.834145  Biso 1.000000     H
    H   1.0     0.521684     0.072240     0.314621  Biso 1.000000     H
    H   1.0     0.000000     0.072228     0.314622  Biso 1.000000     H
    H   1.0     0.473525     0.138208     0.372196  Biso 1.000000     H
    H   1.0     0.973519     0.138202     0.372198  Biso 1.000000     H
    H   1.0     0.344907     0.045099     0.144525  Biso 1.000000     H
    H   1.0     0.844905     0.045096     0.144523  Biso 1.000000     H
    H   1.0     0.348939     0.136342     0.147483  Biso 1.000000     H
    H   1.0     0.848937     0.136340     0.147485  Biso 1.000000     H
    H   1.0     0.258845     0.328288     0.139290  Biso 1.000000     H
    H   1.0     0.758842     0.328289     0.139291  Biso 1.000000     H
    H   1.0     0.258945     0.423358     0.159673  Biso 1.000000     H
    H   1.0     0.758944     0.423358     0.159676  Biso 1.000000     H
    H   1.0     0.120853     0.429802     0.377495  Biso 1.000000     H
    H   1.0     0.620851     0.429796     0.377495  Biso 1.000000     H
    H   1.0     0.093508     0.344043     0.334154  Biso 1.000000     H
    H   1.0     0.593511     0.344036     0.334152  Biso 1.000000     H
    H   1.0     0.271625     0.927829     0.185367  Biso 1.000000     H
    H   1.0     0.771635     0.927824     0.185373  Biso 1.000000     H
    H   1.0     0.223489     0.861829     0.127799  Biso 1.000000     H
    H   1.0     0.723494     0.861832     0.127801  Biso 1.000000     H
    H   1.0     0.094915     0.954937     0.355468  Biso 1.000000     H
    H   1.0     0.594905     0.954932     0.355452  Biso 1.000000     H
    H   1.0     0.098945     0.863687     0.352486  Biso 1.000000     H
    H   1.0     0.598941     0.863684     0.352484  Biso 1.000000     H
    H   1.0     0.008856     0.671737     0.360686  Biso 1.000000     H
    H   1.0     0.508850     0.671741     0.360685  Biso 1.000000     H
    H   1.0     0.508953     0.576671     0.340299  Biso 1.000000     H
    H   1.0     0.000000     0.576669     0.340302  Biso 1.000000     H
    H   1.0     0.370842     0.570223     0.122476  Biso 1.000000     H
    H   1.0     0.870841     0.570224     0.122476  Biso 1.000000     H
    H   1.0     0.343505     0.655980     0.165826  Biso 1.000000     H
    H   1.0     0.843505     0.655980     0.165827  Biso 1.000000     H
    C   1.0     0.330648     0.860242     0.759128  Biso 1.000000     C
    C   1.0     0.830642     0.860244     0.759131  Biso 1.000000     C
    C   1.0     0.339008     0.934193     0.735855  Biso 1.000000     C
    C   1.0     0.839002     0.934201     0.735866  Biso 1.000000     C
    C   1.0     0.072201     0.646619     0.757283  Biso 1.000000     C
    C   1.0     0.572202     0.646618     0.757284  Biso 1.000000     C
    C   1.0     0.077307     0.564955     0.765755  Biso 1.000000     C
    C   1.0     0.577306     0.564954     0.765756  Biso 1.000000     C
    C   1.0     0.288099     0.645112     0.511054  Biso 1.000000     C
    C   1.0     0.788099     0.645110     0.511053  Biso 1.000000     C
    C   1.0     0.316639     0.561975     0.491541  Biso 1.000000     C
    C   1.0     0.816639     0.561973     0.491540  Biso 1.000000     C
    C   1.0     0.108169     0.853109     0.490337  Biso 1.000000     C
    C   1.0     0.608170     0.853106     0.490334  Biso 1.000000     C
    C   1.0     0.157260     0.923935     0.512885  Biso 1.000000     C
    C   1.0     0.657258     0.923934     0.512882  Biso 1.000000     C
    C   1.0     0.080653     0.139795     0.740837  Biso 1.000000     C
    C   1.0     0.580648     0.139793     0.740833  Biso 1.000000     C
    C   1.0     0.089016     0.065837     0.764100  Biso 1.000000     C
    C   1.0     0.589010     0.065836     0.764098  Biso 1.000000     C
    C   1.0     0.322211     0.353423     0.742667  Biso 1.000000     C
    C   1.0     0.822210     0.353419     0.742664  Biso 1.000000     C
    C   1.0     0.327310     0.435087     0.734197  Biso 1.000000     C
    C   1.0     0.827307     0.435085     0.734197  Biso 1.000000     C
    C   1.0     0.038100     0.354926     0.988921  Biso 1.000000     C
    C   1.0     0.538098     0.354929     0.988923  Biso 1.000000     C
    C   1.0     0.066648     0.438068     0.008439  Biso 1.000000     C
    C   1.0     0.566644     0.438073     0.008440  Biso 1.000000     C
    C   1.0     0.358166     0.146924     0.009622  Biso 1.000000     C
    C   1.0     0.858164     0.146926     0.009626  Biso 1.000000     C
    C   1.0     0.407256     0.076089     0.987076  Biso 1.000000     C
    C   1.0     0.907252     0.076089     0.987079  Biso 1.000000     C
    C   1.0     0.169353     0.139796     0.240843  Biso 1.000000     C
    C   1.0     0.669350     0.139797     0.240848  Biso 1.000000     C
    C   1.0     0.160989     0.065841     0.264109  Biso 1.000000     C
    C   1.0     0.660984     0.065843     0.264115  Biso 1.000000     C
    C   1.0     0.427796     0.353415     0.242683  Biso 1.000000     C
    C   1.0     0.927793     0.353413     0.242680  Biso 1.000000     C
    C   1.0     0.422692     0.435080     0.234214  Biso 1.000000     C
    C   1.0     0.922688     0.435079     0.234215  Biso 1.000000     C
    C   1.0     0.211907     0.354929     0.488921  Biso 1.000000     C
    C   1.0     0.711914     0.354932     0.488925  Biso 1.000000     C
    C   1.0     0.183358     0.438062     0.508431  Biso 1.000000     C
    C   1.0     0.683358     0.438062     0.508432  Biso 1.000000     C
    C   1.0     0.391830     0.146924     0.509632  Biso 1.000000     C
    C   1.0     0.891830     0.146920     0.509632  Biso 1.000000     C
    C   1.0     0.342737     0.076096     0.487085  Biso 1.000000     C
    C   1.0     0.842735     0.076094     0.487086  Biso 1.000000     C
    C   1.0     0.419345     0.860242     0.259133  Biso 1.000000     C
    C   1.0     0.919345     0.860241     0.259139  Biso 1.000000     C
    C   1.0     0.410984     0.934204     0.235875  Biso 1.000000     C
    C   1.0     0.910982     0.934201     0.235879  Biso 1.000000     C
    C   1.0     0.177793     0.646616     0.257306  Biso 1.000000     C
    C   1.0     0.677789     0.646615     0.257307  Biso 1.000000     C
    C   1.0     0.172691     0.564951     0.265774  Biso 1.000000     C
    C   1.0     0.672687     0.564949     0.265776  Biso 1.000000     C
    C   1.0     0.461912     0.645103     0.011047  Biso 1.000000     C
    C   1.0     0.961908     0.645103     0.011050  Biso 1.000000     C
    C   1.0     0.433353     0.561964     0.991529  Biso 1.000000     C
    C   1.0     0.933349     0.561965     0.991531  Biso 1.000000     C
    C   1.0     0.141833     0.853110     0.990344  Biso 1.000000     C
    C   1.0     0.641835     0.853115     0.990346  Biso 1.000000     C
    C   1.0     0.092738     0.923938     0.012892  Biso 1.000000     C
    C   1.0     0.592736     0.923940     0.012894  Biso 1.000000     C
    N   1.0     0.276046     0.809363     0.736106  Biso 1.000000     N
    N   1.0     0.776043     0.809363     0.736099  Biso 1.000000     N
    N   1.0     0.290801     0.746562     0.760815  Biso 1.000000     N
    N   1.0     0.790798     0.746559     0.760806  Biso 1.000000     N
    N   1.0     0.352438     0.759817     0.799144  Biso 1.000000     N
    N   1.0     0.852433     0.759812     0.799136  Biso 1.000000     N
    N   1.0     0.378470     0.831453     0.798801  Biso 1.000000     N
    N   1.0     0.878463     0.831453     0.798803  Biso 1.000000     N
    N   1.0     0.119784     0.677166     0.718978  Biso 1.000000     N
    N   1.0     0.619786     0.677166     0.718983  Biso 1.000000     N
    N   1.0     0.096271     0.751142     0.724865  Biso 1.000000     N
    N   1.0     0.596275     0.751144     0.724871  Biso 1.000000     N
    N   1.0     0.036419     0.764767     0.765909  Biso 1.000000     N
    N   1.0     0.536422     0.764768     0.765915  Biso 1.000000     N
    N   1.0     0.019964     0.699146     0.786286  Biso 1.000000     N
    N   1.0     0.519965     0.699146     0.786290  Biso 1.000000     N
    N   1.0     0.253162     0.681601     0.575970  Biso 1.000000     N
    N   1.0     0.753158     0.681596     0.575967  Biso 1.000000     N
    N   1.0     0.234418     0.753761     0.568782  Biso 1.000000     N
    N   1.0     0.734410     0.753754     0.568777  Biso 1.000000     N
    N   1.0     0.257821     0.760643     0.502441  Biso 1.000000     N
    N   1.0     0.757815     0.760638     0.502436  Biso 1.000000     N
    N   1.0     0.291815     0.692301     0.464916  Biso 1.000000     N
    N   1.0     0.791814     0.692299     0.464914  Biso 1.000000     N
    N   1.0     0.078711     0.818563     0.540010  Biso 1.000000     N
    N   1.0     0.578715     0.818559     0.540008  Biso 1.000000     N
    N   1.0     0.041257     0.755158     0.496883  Biso 1.000000     N
    N   1.0     0.541256     0.755158     0.496882  Biso 1.000000     N
    N   1.0     0.047752     0.752612     0.423874  Biso 1.000000     N
    N   1.0     0.547747     0.752613     0.423872  Biso 1.000000     N
    N   1.0     0.089549     0.813410     0.418044  Biso 1.000000     N
    N   1.0     0.589547     0.813408     0.418042  Biso 1.000000     N
    N   1.0     0.026058     0.190681     0.763867  Biso 1.000000     N
    N   1.0     0.526054     0.190681     0.763868  Biso 1.000000     N
    N   1.0     0.040814     0.253485     0.739165  Biso 1.000000     N
    N   1.0     0.540811     0.253485     0.739165  Biso 1.000000     N
    N   1.0     0.102444     0.240224     0.700829  Biso 1.000000     N
    N   1.0     0.602440     0.240225     0.700830  Biso 1.000000     N
    N   1.0     0.128473     0.168583     0.701166  Biso 1.000000     N
    N   1.0     0.628468     0.168582     0.701163  Biso 1.000000     N
    N   1.0     0.369798     0.322875     0.780971  Biso 1.000000     N
    N   1.0     0.869797     0.322870     0.780967  Biso 1.000000     N
    N   1.0     0.346288     0.248897     0.775079  Biso 1.000000     N
    N   1.0     0.846285     0.248894     0.775079  Biso 1.000000     N
    N   1.0     0.286429     0.235276     0.734040  Biso 1.000000     N
    N   1.0     0.786428     0.235272     0.734034  Biso 1.000000     N
    N   1.0     0.269970     0.300898     0.713664  Biso 1.000000     N
    N   1.0     0.769969     0.300896     0.713662  Biso 1.000000     N
    N   1.0     0.003164     0.318439     0.923999  Biso 1.000000     N
    N   1.0     0.503161     0.318444     0.924002  Biso 1.000000     N
    N   1.0    -0.015593     0.246284     0.931186  Biso 1.000000     N
    N   1.0     0.484403     0.246288     0.931189  Biso 1.000000     N
    N   1.0     0.007803     0.239398     0.997531  Biso 1.000000     N
    N   1.0     0.507799     0.239403     0.997534  Biso 1.000000     N
    N   1.0     0.041807     0.307743     0.035063  Biso 1.000000     N
    N   1.0     0.541804     0.307747     0.035065  Biso 1.000000     N
    N   1.0     0.328708     0.181472     0.959947  Biso 1.000000     N
    N   1.0     0.828700     0.181468     0.959949  Biso 1.000000     N
    N   1.0     0.291250     0.244879     0.003075  Biso 1.000000     N
    N   1.0     0.791246     0.244877     0.003078  Biso 1.000000     N
    N   1.0     0.297732     0.247409     0.076082  Biso 1.000000     N
    N   1.0     0.797734     0.247413     0.076086  Biso 1.000000     N
    N   1.0     0.339539     0.186616     0.081913  Biso 1.000000     N
    N   1.0     0.839540     0.186620     0.081917  Biso 1.000000     N
    N   1.0     0.223951     0.190678     0.263874  Biso 1.000000     N
    N   1.0     0.723950     0.190677     0.263875  Biso 1.000000     N
    N   1.0     0.209195     0.253482     0.239169  Biso 1.000000     N
    N   1.0     0.709196     0.253479     0.239166  Biso 1.000000     N
    N   1.0     0.147563     0.240224     0.200831  Biso 1.000000     N
    N   1.0     0.647564     0.240220     0.200829  Biso 1.000000     N
    N   1.0     0.121534     0.168583     0.201166  Biso 1.000000     N
    N   1.0     0.621531     0.168583     0.201170  Biso 1.000000     N
    N   1.0     0.380212     0.322867     0.280985  Biso 1.000000     N
    N   1.0     0.880212     0.322866     0.280986  Biso 1.000000     N
    N   1.0     0.403724     0.248890     0.275095  Biso 1.000000     N
    N   1.0     0.903721     0.248887     0.275094  Biso 1.000000     N
    N   1.0     0.463578     0.235267     0.234054  Biso 1.000000     N
    N   1.0     0.963574     0.235264     0.234050  Biso 1.000000     N
    N   1.0     0.480033     0.300889     0.213678  Biso 1.000000     N
    N   1.0     0.980031     0.300886     0.213677  Biso 1.000000     N
    N   1.0     0.246844     0.318443     0.424005  Biso 1.000000     N
    N   1.0     0.746850     0.318444     0.424008  Biso 1.000000     N
    N   1.0     0.265596     0.246287     0.431196  Biso 1.000000     N
    N   1.0     0.765601     0.246287     0.431197  Biso 1.000000     N
    N   1.0     0.242195     0.239403     0.497538  Biso 1.000000     N
    N   1.0     0.742198     0.239403     0.497538  Biso 1.000000     N
    N   1.0     0.208194     0.307741     0.535060  Biso 1.000000     N
    N   1.0     0.708198     0.307742     0.535062  Biso 1.000000     N
    N   1.0     0.421288     0.181469     0.459958  Biso 1.000000     N
    N   1.0     0.921293     0.181462     0.459959  Biso 1.000000     N
    N   1.0     0.458749     0.244869     0.503084  Biso 1.000000     N
    N   1.0     0.958752     0.244864     0.503084  Biso 1.000000     N
    N   1.0     0.452257     0.247414     0.576093  Biso 1.000000     N
    N   1.0     0.952258     0.247411     0.576094  Biso 1.000000     N
    N   1.0     0.410455     0.186621     0.581924  Biso 1.000000     N
    N   1.0     0.910453     0.186620     0.581924  Biso 1.000000     N
    N   1.0     0.473939     0.809356     0.236095  Biso 1.000000     N
    N   1.0     0.973940     0.809355     0.236103  Biso 1.000000     N
    N   1.0     0.459184     0.746548     0.260793  Biso 1.000000     N
    N   1.0     0.959184     0.746547     0.260801  Biso 1.000000     N
    N   1.0     0.397557     0.759807     0.299133  Biso 1.000000     N
    N   1.0     0.897557     0.759806     0.299140  Biso 1.000000     N
    N   1.0     0.371529     0.831452     0.298806  Biso 1.000000     N
    N   1.0     0.871529     0.831451     0.298811  Biso 1.000000     N
    N   1.0     0.130204     0.677167     0.219006  Biso 1.000000     N
    N   1.0     0.630202     0.677164     0.219005  Biso 1.000000     N
    N   1.0     0.153716     0.751142     0.224893  Biso 1.000000     N
    N   1.0     0.653716     0.751137     0.224887  Biso 1.000000     N
    N   1.0     0.213574     0.764764     0.265934  Biso 1.000000     N
    N   1.0     0.713575     0.764759     0.265927  Biso 1.000000     N
    N   1.0     0.230033     0.699141     0.286308  Biso 1.000000     N
    N   1.0     0.730032     0.699138     0.286306  Biso 1.000000     N
    N   1.0     0.496852     0.681586     0.075966  Biso 1.000000     N
    N   1.0     0.996845     0.681589     0.075971  Biso 1.000000     N
    N   1.0     0.515620     0.753737     0.068775  Biso 1.000000     N
    N   1.0     0.000000     0.753741     0.068781  Biso 1.000000     N
    N   1.0     0.492223     0.760625     0.002431  Biso 1.000000     N
    N   1.0     0.992214     0.760627     0.002436  Biso 1.000000     N
    N   1.0     0.458211     0.692284     0.964903  Biso 1.000000     N
    N   1.0     0.958204     0.692285     0.964907  Biso 1.000000     N
    N   1.0     0.171310     0.818576     0.040021  Biso 1.000000     N
    N   1.0     0.671312     0.818579     0.040021  Biso 1.000000     N
    N   1.0     0.208772     0.755174     0.996892  Biso 1.000000     N
    N   1.0     0.708780     0.755183     0.996892  Biso 1.000000     N
    N   1.0     0.202266     0.752625     0.923883  Biso 1.000000     N
    N   1.0     0.702281     0.752642     0.923884  Biso 1.000000     N
    N   1.0     0.160454     0.813414     0.918053  Biso 1.000000     N
    N   1.0     0.660463     0.813427     0.918055  Biso 1.000000     N
    O   1.0     0.287413     0.952800     0.699864  Biso 1.000000     O
    O   1.0     0.787412     0.952801     0.699863  Biso 1.000000     O
    O   1.0     0.397780     0.971709     0.751755  Biso 1.000000     O
    O   1.0     0.897769     0.971723     0.751781  Biso 1.000000     O
    O   1.0     0.133582     0.525962     0.740931  Biso 1.000000     O
    O   1.0     0.633582     0.525961     0.740938  Biso 1.000000     O
    O   1.0     0.025026     0.540243     0.796410  Biso 1.000000     O
    O   1.0     0.525023     0.540243     0.796409  Biso 1.000000     O
    O   1.0     0.321230     0.530066     0.545357  Biso 1.000000     O
    O   1.0     0.821225     0.530063     0.545356  Biso 1.000000     O
    O   1.0     0.333216     0.529107     0.421477  Biso 1.000000     O
    O   1.0     0.833211     0.529102     0.421475  Biso 1.000000     O
    O   1.0     0.169755     0.953572     0.584639  Biso 1.000000     O
    O   1.0     0.669751     0.953574     0.584637  Biso 1.000000     O
    O   1.0     0.182225     0.949686     0.461021  Biso 1.000000     O
    O   1.0     0.682220     0.949686     0.461018  Biso 1.000000     O
    O   1.0     0.019787     0.893217     0.682415  Biso 1.000000     O
    O   1.0     0.519773     0.893215     0.682413  Biso 1.000000     O
    O   1.0     0.141818     0.902430     0.821470  Biso 1.000000     O
    O   1.0     0.641815     0.902437     0.821467  Biso 1.000000     O
    O   1.0     0.265655     0.620423     0.828082  Biso 1.000000     O
    O   1.0     0.765651     0.620427     0.828082  Biso 1.000000     O
    O   1.0     0.391472     0.606051     0.674580  Biso 1.000000     O
    O   1.0     0.891468     0.606048     0.674581  Biso 1.000000     O
    O   1.0     0.037430     0.047230     0.800099  Biso 1.000000     O
    O   1.0     0.537427     0.047234     0.800104  Biso 1.000000     O
    O   1.0     0.147784     0.028318     0.748182  Biso 1.000000     O
    O   1.0     0.647779     0.028317     0.748181  Biso 1.000000     O
    O   1.0     0.383586     0.474083     0.759017  Biso 1.000000     O
    O   1.0     0.883582     0.474082     0.759019  Biso 1.000000     O
    O   1.0     0.275019     0.459795     0.703547  Biso 1.000000     O
    O   1.0     0.775015     0.459793     0.703550  Biso 1.000000     O
    O   1.0     0.071233     0.469962     0.954613  Biso 1.000000     O
    O   1.0     0.571229     0.469965     0.954614  Biso 1.000000     O
    O   1.0     0.083212     0.470946     0.078507  Biso 1.000000     O
    O   1.0     0.583207     0.470951     0.078508  Biso 1.000000     O
    O   1.0     0.419752     0.046449     0.915323  Biso 1.000000     O
    O   1.0     0.919744     0.046446     0.915326  Biso 1.000000     O
    O   1.0     0.432218     0.050342     0.038947  Biso 1.000000     O
    O   1.0     0.932215     0.050344     0.038950  Biso 1.000000     O
    O   1.0     0.269828     0.106804     0.817513  Biso 1.000000     O
    O   1.0     0.769822     0.106809     0.817516  Biso 1.000000     O
    O   1.0     0.391820     0.097612     0.678502  Biso 1.000000     O
    O   1.0     0.891816     0.097605     0.678496  Biso 1.000000     O
    O   1.0     0.015654     0.379618     0.671898  Biso 1.000000     O
    O   1.0     0.515649     0.379616     0.671897  Biso 1.000000     O
    O   1.0     0.141474     0.393999     0.825390  Biso 1.000000     O
    O   1.0     0.641470     0.393997     0.825390  Biso 1.000000     O
    O   1.0     0.212574     0.047234     0.300114  Biso 1.000000     O
    O   1.0     0.712572     0.047231     0.300114  Biso 1.000000     O
    O   1.0     0.102219     0.028326     0.248192  Biso 1.000000     O
    O   1.0     0.602213     0.028330     0.248200  Biso 1.000000     O
    O   1.0     0.366419     0.474076     0.259042  Biso 1.000000     O
    O   1.0     0.866416     0.474075     0.259045  Biso 1.000000     O
    O   1.0     0.474974     0.459789     0.203559  Biso 1.000000     O
    O   1.0     0.974970     0.459789     0.203560  Biso 1.000000     O
    O   1.0     0.178765     0.469962     0.454608  Biso 1.000000     O
    O   1.0     0.678759     0.469958     0.454607  Biso 1.000000     O
    O   1.0     0.166783     0.470939     0.578495  Biso 1.000000     O
    O   1.0     0.666778     0.470936     0.578494  Biso 1.000000     O
    O   1.0     0.330241     0.046453     0.415332  Biso 1.000000     O
    O   1.0     0.830237     0.046454     0.415333  Biso 1.000000     O
    O   1.0     0.317775     0.050344     0.538949  Biso 1.000000     O
    O   1.0     0.817774     0.050341     0.538950  Biso 1.000000     O
    O   1.0     0.480203     0.106812     0.317547  Biso 1.000000     O
    O   1.0     0.980199     0.106811     0.317546  Biso 1.000000     O
    O   1.0     0.358174     0.097605     0.178500  Biso 1.000000     O
    O   1.0     0.858169     0.097602     0.178500  Biso 1.000000     O
    O   1.0     0.234345     0.379611     0.171898  Biso 1.000000     O
    O   1.0     0.734341     0.379612     0.171899  Biso 1.000000     O
    O   1.0     0.108522     0.393990     0.325395  Biso 1.000000     O
    O   1.0     0.608518     0.393986     0.325394  Biso 1.000000     O
    O   1.0     0.462571     0.952804     0.199872  Biso 1.000000     O
    O   1.0     0.962566     0.952801     0.199873  Biso 1.000000     O
    O   1.0     0.352219     0.971729     0.251794  Biso 1.000000     O
    O   1.0     0.852216     0.971724     0.251797  Biso 1.000000     O
    O   1.0     0.116415     0.525958     0.240951  Biso 1.000000     O
    O   1.0     0.616410     0.525957     0.240953  Biso 1.000000     O
    O   1.0     0.224977     0.540238     0.296426  Biso 1.000000     O
    O   1.0     0.724973     0.540236     0.296426  Biso 1.000000     O
    O   1.0     0.428767     0.530063     0.045349  Biso 1.000000     O
    O   1.0     0.928761     0.530065     0.045352  Biso 1.000000     O
    O   1.0     0.416783     0.529096     0.921461  Biso 1.000000     O
    O   1.0     0.916776     0.529096     0.921464  Biso 1.000000     O
    O   1.0     0.080242     0.953574     0.084645  Biso 1.000000     O
    O   1.0     0.580239     0.953575     0.084647  Biso 1.000000     O
    O   1.0     0.067776     0.949685     0.961021  Biso 1.000000     O
    O   1.0     0.567776     0.949689     0.961023  Biso 1.000000     O
    O   1.0     0.230173     0.893220     0.182453  Biso 1.000000     O
    O   1.0     0.730180     0.893219     0.182456  Biso 1.000000     O
    O   1.0     0.108175     0.902436     0.321481  Biso 1.000000     O
    O   1.0     0.608171     0.902428     0.321474  Biso 1.000000     O
    O   1.0     0.484340     0.620418     0.328086  Biso 1.000000     O
    O   1.0     0.984335     0.620413     0.328085  Biso 1.000000     O
    O   1.0     0.358521     0.606029     0.174579  Biso 1.000000     O
    O   1.0     0.858518     0.606029     0.174580  Biso 1.000000     O
   Sr   1.0     0.164974     0.867755     0.676900  Biso 1.000000    Sr
   Sr   1.0     0.664969     0.867751     0.676894  Biso 1.000000    Sr
   Sr   1.0     0.407184     0.623864     0.827007  Biso 1.000000    Sr
   Sr   1.0     0.907176     0.623864     0.827011  Biso 1.000000    Sr
   Sr   1.0     0.236741     0.591592     0.673301  Biso 1.000000    Sr
   Sr   1.0     0.736741     0.591590     0.673300  Biso 1.000000    Sr
   Sr   1.0     0.247926     0.077383     0.660130  Biso 1.000000    Sr
   Sr   1.0     0.747919     0.077381     0.660131  Biso 1.000000    Sr
   Sr   1.0     0.414988     0.132281     0.823063  Biso 1.000000    Sr
   Sr   1.0     0.914979     0.132275     0.823059  Biso 1.000000    Sr
   Sr   1.0     0.157181     0.376177     0.672953  Biso 1.000000    Sr
   Sr   1.0     0.657178     0.376176     0.672954  Biso 1.000000    Sr
   Sr   1.0    -0.013244     0.408451     0.826667  Biso 1.000000    Sr
   Sr   1.0     0.486751     0.408451     0.826667  Biso 1.000000    Sr
   Sr   1.0    -0.002073     0.922654     0.839827  Biso 1.000000    Sr
   Sr   1.0     0.497928     0.922656     0.839830  Biso 1.000000    Sr
   Sr   1.0     0.335024     0.132280     0.323070  Biso 1.000000    Sr
   Sr   1.0     0.835022     0.132277     0.323070  Biso 1.000000    Sr
   Sr   1.0     0.092820     0.376173     0.172965  Biso 1.000000    Sr
   Sr   1.0     0.592814     0.376174     0.172967  Biso 1.000000    Sr
   Sr   1.0     0.263258     0.408446     0.326674  Biso 1.000000    Sr
   Sr   1.0     0.763257     0.408444     0.326674  Biso 1.000000    Sr
   Sr   1.0     0.252077     0.922652     0.339837  Biso 1.000000    Sr
   Sr   1.0     0.752073     0.922648     0.339836  Biso 1.000000    Sr
   Sr   1.0     0.085015     0.867761     0.176916  Biso 1.000000    Sr
   Sr   1.0     0.585011     0.867756     0.176912  Biso 1.000000    Sr
   Sr   1.0     0.342820     0.623860     0.327019  Biso 1.000000    Sr
   Sr   1.0     0.842817     0.623858     0.327018  Biso 1.000000    Sr
   Sr   1.0     0.513248     0.591586     0.173307  Biso 1.000000    Sr
   Sr   1.0     0.000000     0.591584     0.173308  Biso 1.000000    Sr
   Sr   1.0     0.502073     0.077382     0.160142  Biso 1.000000    Sr
   Sr   1.0     0.000000     0.077380     0.160142  Biso 1.000000    Sr
