#======================================================================

# CRYSTAL DATA

#----------------------------------------------------------------------

data_VESTA_phase_1


_pd_phase_name                         MOF
_cell_length_a                         17.31900
_cell_length_b                         14.16600
_cell_length_c                         14.16900
_cell_angle_alpha                      120.10900
_cell_angle_beta                       89.91200
_cell_angle_gamma                      89.91600
_symmetry_space_group_name_H-M         "P 1"
_symmetry_Int_Tables_number            1

loop_
_symmetry_equiv_pos_as_xyz
   "x, y, z"

loop_
   _atom_site_label
   _atom_site_occupancy
   _atom_site_fract_x
   _atom_site_fract_y
   _atom_site_fract_z
   _atom_site_adp_type
   _atom_site_B_iso_or_equiv
   _atom_site_type_symbol
    H   1.0     0.109738     0.184336     0.854000  Biso 1.000000     H
    H   1.0     0.609736     0.184336     0.854000  Biso 1.000000     H
    H   1.0     0.192516     0.163534     0.768796  Biso 1.000000     H
    H   1.0     0.692514     0.163534     0.768796  Biso 1.000000     H
    H   1.0     0.099587     0.179752     0.725644  Biso 1.000000     H
    H   1.0     0.599584     0.179752     0.725644  Biso 1.000000     H
    H   1.0     0.400634     0.051422     0.769041  Biso 1.000000     H
    H   1.0     0.900632     0.051422     0.769041  Biso 1.000000     H
    H   1.0     0.310549     0.041160     0.703376  Biso 1.000000     H
    H   1.0     0.810546     0.041160     0.703376  Biso 1.000000     H
    H   1.0     0.324351     0.145625     0.842991  Biso 1.000000     H
    H   1.0     0.824349     0.145625     0.842991  Biso 1.000000     H
    H   1.0     0.107825     0.669226     0.814675  Biso 1.000000     H
    H   1.0     0.607823     0.669226     0.814675  Biso 1.000000     H
    H   1.0     0.191881     0.606983     0.835214  Biso 1.000000     H
    H   1.0     0.691878     0.606983     0.835214  Biso 1.000000     H
    H   1.0     0.099975     0.545106     0.819090  Biso 1.000000     H
    H   1.0     0.599972     0.545107     0.819090  Biso 1.000000     H
    H   1.0     0.400393     0.718970     0.949396  Biso 1.000000     H
    H   1.0     0.900390     0.718970     0.949395  Biso 1.000000     H
    H   1.0     0.310647     0.663045     0.960112  Biso 1.000000     H
    H   1.0     0.810644     0.663045     0.960112  Biso 1.000000     H
    H   1.0     0.324023     0.698128     0.855724  Biso 1.000000     H
    H   1.0     0.824020     0.698128     0.855724  Biso 1.000000     H
    H   1.0     0.106695     0.146742     0.331332  Biso 1.000000     H
    H   1.0     0.606693     0.146742     0.331332  Biso 1.000000     H
    H   1.0     0.191203     0.228582     0.392155  Biso 1.000000     H
    H   1.0     0.691200     0.228582     0.392155  Biso 1.000000     H
    H   1.0     0.099681     0.275536     0.455696  Biso 1.000000     H
    H   1.0     0.599679     0.275536     0.455696  Biso 1.000000     H
    H   1.0     0.397832     0.231259     0.280595  Biso 1.000000     H
    H   1.0     0.897829     0.231259     0.280595  Biso 1.000000     H
    H   1.0     0.309103     0.299855     0.340468  Biso 1.000000     H
    H   1.0     0.809100     0.299856     0.340469  Biso 1.000000     H
    H   1.0     0.321448     0.159228     0.302577  Biso 1.000000     H
    H   1.0     0.821445     0.159228     0.302577  Biso 1.000000     H
    H   1.0     0.356685     0.331185     0.146585  Biso 1.000000     H
    H   1.0     0.856682     0.331185     0.146585  Biso 1.000000     H
    H   1.0     0.441244     0.391912     0.228319  Biso 1.000000     H
    H   1.0     0.941242     0.391912     0.228319  Biso 1.000000     H
    H   1.0     0.349757     0.455529     0.275410  Biso 1.000000     H
    H   1.0     0.849754     0.455529     0.275410  Biso 1.000000     H
    H   1.0     0.147881     0.280477     0.231258  Biso 1.000000     H
    H   1.0     0.647879     0.280477     0.231257  Biso 1.000000     H
    H   1.0     0.059120     0.340303     0.299772  Biso 1.000000     H
    H   1.0     0.559117     0.340303     0.299771  Biso 1.000000     H
    H   1.0     0.071520     0.302405     0.159182  Biso 1.000000     H
    H   1.0     0.571517     0.302405     0.159182  Biso 1.000000     H
    H   1.0     0.359725     0.854034     0.184389  Biso 1.000000     H
    H   1.0     0.859722     0.854034     0.184389  Biso 1.000000     H
    H   1.0     0.442494     0.768791     0.163551  Biso 1.000000     H
    H   1.0     0.942492     0.768790     0.163551  Biso 1.000000     H
    H   1.0     0.349561     0.725636     0.179771  Biso 1.000000     H
    H   1.0     0.849558     0.725636     0.179771  Biso 1.000000     H
    H   1.0     0.150554     0.768991     0.051405  Biso 1.000000     H
    H   1.0     0.650551     0.768991     0.051405  Biso 1.000000     H
    H   1.0     0.060512     0.703221     0.041181  Biso 1.000000     H
    H   1.0     0.560509     0.703221     0.041181  Biso 1.000000     H
    H   1.0     0.074245     0.842906     0.145566  Biso 1.000000     H
    H   1.0     0.574242     0.842906     0.145566  Biso 1.000000     H
    H   1.0     0.357832     0.814692     0.669055  Biso 1.000000     H
    H   1.0     0.857829     0.814692     0.669055  Biso 1.000000     H
    H   1.0     0.441846     0.835228     0.606738  Biso 1.000000     H
    H   1.0     0.941843     0.835228     0.606738  Biso 1.000000     H
    H   1.0     0.349914     0.819039     0.544933  Biso 1.000000     H
    H   1.0     0.849911     0.819039     0.544933  Biso 1.000000     H
    H   1.0     0.150369     0.949342     0.718866  Biso 1.000000     H
    H   1.0     0.650366     0.949343     0.718866  Biso 1.000000     H
    H   1.0     0.060617     0.960063     0.662973  Biso 1.000000     H
    H   1.0     0.560614     0.960063     0.662973  Biso 1.000000     H
    H   1.0     0.074016     0.855597     0.697961  Biso 1.000000     H
    H   1.0     0.574014     0.855597     0.697961  Biso 1.000000     H
    C   1.0     0.136789     0.205196     0.796776  Biso 1.000000     C
    C   1.0     0.636786     0.205196     0.796776  Biso 1.000000     C
    C   1.0     0.352235     0.098063     0.762945  Biso 1.000000     C
    C   1.0     0.852232     0.098063     0.762945  Biso 1.000000     C
    C   1.0     0.136150     0.591761     0.793662  Biso 1.000000     C
    C   1.0     0.636147     0.591761     0.793662  Biso 1.000000     C
    C   1.0     0.352197     0.665838     0.903011  Biso 1.000000     C
    C   1.0     0.852194     0.665838     0.903011  Biso 1.000000     C
    C   1.0     0.135504     0.202872     0.408305  Biso 1.000000     C
    C   1.0     0.635501     0.202873     0.408305  Biso 1.000000     C
    C   1.0     0.350313     0.238394     0.335061  Biso 1.000000     C
    C   1.0     0.850310     0.238395     0.335061  Biso 1.000000     C
    C   1.0     0.385534     0.408138     0.202709  Biso 1.000000     C
    C   1.0     0.885531     0.408137     0.202709  Biso 1.000000     C
    C   1.0     0.100351     0.334923     0.238356  Biso 1.000000     C
    C   1.0     0.600349     0.334923     0.238356  Biso 1.000000     C
    C   1.0     0.386772     0.796779     0.205218  Biso 1.000000     C
    C   1.0     0.886769     0.796779     0.205218  Biso 1.000000     C
    C   1.0     0.102172     0.762872     0.098054  Biso 1.000000     C
    C   1.0     0.602169     0.762872     0.098054  Biso 1.000000     C
    C   1.0     0.386124     0.793650     0.591578  Biso 1.000000     C
    C   1.0     0.886121     0.793650     0.591578  Biso 1.000000     C
    C   1.0     0.102181     0.902949     0.665729  Biso 1.000000     C
    C   1.0     0.602178     0.902949     0.665729  Biso 1.000000     C
    O   1.0     0.193352     0.383103     0.790322  Biso 1.000000     O
    O   1.0     0.693350     0.383103     0.790322  Biso 1.000000     O
    O   1.0     0.199895     0.377953     0.967532  Biso 1.000000     O
    O   1.0     0.699892     0.377953     0.967532  Biso 1.000000     O
    O   1.0     0.073063     0.408790     0.899164  Biso 1.000000     O
    O   1.0     0.573060     0.408790     0.899164  Biso 1.000000     O
    O   1.0     0.319504     0.257288     0.718153  Biso 1.000000     O
    O   1.0     0.819501     0.257288     0.718153  Biso 1.000000     O
    O   1.0     0.423903     0.114686     0.605686  Biso 1.000000     O
    O   1.0     0.923900     0.114686     0.605686  Biso 1.000000     O
    O   1.0     0.451136     0.259323     0.798858  Biso 1.000000     O
    O   1.0     0.951133     0.259323     0.798858  Biso 1.000000     O
    O   1.0     0.196526     0.409581     0.615494  Biso 1.000000     O
    O   1.0     0.696524     0.409581     0.615494  Biso 1.000000     O
    O   1.0     0.196932     0.592360     0.621101  Biso 1.000000     O
    O   1.0     0.696930     0.592360     0.621101  Biso 1.000000     O
    O   1.0     0.073129     0.486877     0.589984  Biso 1.000000     O
    O   1.0     0.573126     0.486877     0.589984  Biso 1.000000     O
    O   1.0     0.319990     0.460756     0.745239  Biso 1.000000     O
    O   1.0     0.819987     0.460756     0.745239  Biso 1.000000     O
    O   1.0     0.426213     0.493267     0.885924  Biso 1.000000     O
    O   1.0     0.926211     0.493267     0.885924  Biso 1.000000     O
    O   1.0     0.450656     0.540291     0.740087  Biso 1.000000     O
    O   1.0     0.950654     0.540291     0.740086  Biso 1.000000     O
    O   1.0     0.196404     0.206796     0.589258  Biso 1.000000     O
    O   1.0     0.696401     0.206796     0.589258  Biso 1.000000     O
    O   1.0     0.196306     0.029068     0.406592  Biso 1.000000     O
    O   1.0     0.696303     0.029068     0.406592  Biso 1.000000     O
    O   1.0     0.072700     0.104814     0.513939  Biso 1.000000     O
    O   1.0     0.572698     0.104814     0.513939  Biso 1.000000     O
    O   1.0     0.321798     0.283532     0.540901  Biso 1.000000     O
    O   1.0     0.821795     0.283532     0.540901  Biso 1.000000     O
    O   1.0     0.426798     0.391093     0.506021  Biso 1.000000     O
    O   1.0     0.926795     0.391093     0.506021  Biso 1.000000     O
    O   1.0     0.450399     0.196049     0.454300  Biso 1.000000     O
    O   1.0     0.950397     0.196049     0.454300  Biso 1.000000     O
    O   1.0     0.446430     0.589187     0.206734  Biso 1.000000     O
    O   1.0     0.946427     0.589187     0.206733  Biso 1.000000     O
    O   1.0     0.446287     0.406551     0.028973  Biso 1.000000     O
    O   1.0     0.946284     0.406551     0.028973  Biso 1.000000     O
    O   1.0     0.322701     0.513924     0.104830  Biso 1.000000     O
    O   1.0     0.822698     0.513924     0.104830  Biso 1.000000     O
    O   1.0     0.071800     0.540802     0.283473  Biso 1.000000     O
    O   1.0     0.571797     0.540802     0.283473  Biso 1.000000     O
    O   1.0     0.176796     0.505968     0.391043  Biso 1.000000     O
    O   1.0     0.676793     0.505968     0.391043  Biso 1.000000     O
    O   1.0     0.200410     0.454211     0.196020  Biso 1.000000     O
    O   1.0     0.700408     0.454212     0.196021  Biso 1.000000     O
    O   1.0     0.443340     0.790270     0.383054  Biso 1.000000     O
    O   1.0     0.943337     0.790270     0.383054  Biso 1.000000     O
    O   1.0     0.449887     0.967540     0.377969  Biso 1.000000     O
    O   1.0     0.949884     0.967540     0.377969  Biso 1.000000     O
    O   1.0     0.323043     0.899127     0.408756  Biso 1.000000     O
    O   1.0     0.823040     0.899127     0.408756  Biso 1.000000     O
    O   1.0     0.069513     0.718160     0.257328  Biso 1.000000     O
    O   1.0     0.569511     0.718160     0.257328  Biso 1.000000     O
    O   1.0     0.173913     0.605691     0.114757  Biso 1.000000     O
    O   1.0     0.673910     0.605691     0.114757  Biso 1.000000     O
    O   1.0     0.201102     0.798955     0.259301  Biso 1.000000     O
    O   1.0     0.701099     0.798955     0.259301  Biso 1.000000     O
    O   1.0     0.446515     0.615379     0.409476  Biso 1.000000     O
    O   1.0     0.946512     0.615379     0.409476  Biso 1.000000     O
    O   1.0     0.446934     0.621146     0.592299  Biso 1.000000     O
    O   1.0     0.946931     0.621146     0.592299  Biso 1.000000     O
    O   1.0     0.323130     0.589904     0.486806  Biso 1.000000     O
    O   1.0     0.823127     0.589904     0.486806  Biso 1.000000     O
    O   1.0     0.069977     0.745181     0.460696  Biso 1.000000     O
    O   1.0     0.569974     0.745181     0.460696  Biso 1.000000     O
    O   1.0     0.176163     0.885959     0.493195  Biso 1.000000     O
    O   1.0     0.676161     0.885959     0.493195  Biso 1.000000     O
    O   1.0     0.200678     0.740067     0.540141  Biso 1.000000     O
    O   1.0     0.700675     0.740067     0.540141  Biso 1.000000     O
   Al   1.0     0.222970     0.489239     0.096105  Biso 1.000000    Al
   Al   1.0     0.722967     0.489239     0.096105  Biso 1.000000    Al
   Al   1.0     0.223065     0.606139     0.508746  Biso 1.000000    Al
   Al   1.0     0.723062     0.606139     0.508746  Biso 1.000000    Al
   Al   1.0     0.222877     0.903036     0.392937  Biso 1.000000    Al
   Al   1.0     0.722874     0.903036     0.392937  Biso 1.000000    Al
   Al   1.0     0.472889     0.392961     0.902987  Biso 1.000000    Al
   Al   1.0     0.972887     0.392961     0.902987  Biso 1.000000    Al
   Al   1.0     0.472965     0.096086     0.489274  Biso 1.000000    Al
   Al   1.0     0.972963     0.096086     0.489274  Biso 1.000000    Al
   Al   1.0     0.473061     0.508824     0.606169  Biso 1.000000    Al
   Al   1.0     0.973059     0.508824     0.606169  Biso 1.000000    Al
   Al   1.0     0.258208     0.333487     0.666480  Biso 1.000000    Al
   Al   1.0     0.758205     0.333487     0.666480  Biso 1.000000    Al
   Al   1.0     0.008209     0.666411     0.333436  Biso 1.000000    Al
   Al   1.0     0.508206     0.666411     0.333436  Biso 1.000000    Al
    P   1.0     0.152526     0.349332     0.863094  Biso 1.000000     P
    P   1.0     0.652524     0.349332     0.863094  Biso 1.000000     P
    P   1.0     0.386142     0.189051     0.718580  Biso 1.000000     P
    P   1.0     0.886140     0.189051     0.718580  Biso 1.000000     P
    P   1.0     0.152510     0.514137     0.649515  Biso 1.000000     P
    P   1.0     0.652507     0.514137     0.649515  Biso 1.000000     P
    P   1.0     0.386654     0.530349     0.811791  Biso 1.000000     P
    P   1.0     0.886651     0.530349     0.811791  Biso 1.000000     P
    P   1.0     0.152056     0.136225     0.485446  Biso 1.000000     P
    P   1.0     0.652053     0.136225     0.485446  Biso 1.000000     P
    P   1.0     0.386842     0.280051     0.468631  Biso 1.000000     P
    P   1.0     0.886839     0.280051     0.468631  Biso 1.000000     P
    P   1.0     0.402065     0.485375     0.136153  Biso 1.000000     P
    P   1.0     0.902063     0.485375     0.136153  Biso 1.000000     P
    P   1.0     0.136853     0.468543     0.280012  Biso 1.000000     P
    P   1.0     0.636851     0.468543     0.280012  Biso 1.000000     P
    P   1.0     0.402512     0.863072     0.349318  Biso 1.000000     P
    P   1.0     0.902509     0.863072     0.349318  Biso 1.000000     P
    P   1.0     0.136129     0.718595     0.189072  Biso 1.000000     P
    P   1.0     0.636126     0.718595     0.189072  Biso 1.000000     P
    P   1.0     0.402503     0.649473     0.514034  Biso 1.000000     P
    P   1.0     0.902500     0.649473     0.514034  Biso 1.000000     P
    P   1.0     0.136641     0.811770     0.530255  Biso 1.000000     P
    P   1.0     0.636639     0.811770     0.530255  Biso 1.000000     P
