#======================================================================

# CRYSTAL DATA

#----------------------------------------------------------------------

data_VESTA_phase_1


_pd_phase_name                         MOF
_cell_length_a                         17.32400
_cell_length_b                         14.12300
_cell_length_c                         14.12400
_cell_angle_alpha                      119.89900
_cell_angle_beta                       89.97000
_cell_angle_gamma                      89.95000
_symmetry_space_group_name_H-M         "P 1"
_symmetry_Int_Tables_number            1

loop_
_symmetry_equiv_pos_as_xyz
   "x, y, z"

loop_
   _atom_site_label
   _atom_site_occupancy
   _atom_site_fract_x
   _atom_site_fract_y
   _atom_site_fract_z
   _atom_site_adp_type
   _atom_site_B_iso_or_equiv
   _atom_site_type_symbol
    H   1.0     0.107135     0.182922     0.853646  Biso 1.000000     H
    H   1.0     0.607125     0.182922     0.853646  Biso 1.000000     H
    H   1.0     0.191176     0.162384     0.770689  Biso 1.000000     H
    H   1.0     0.691165     0.162384     0.770689  Biso 1.000000     H
    H   1.0     0.099243     0.178778     0.724877  Biso 1.000000     H
    H   1.0     0.599233     0.178777     0.724877  Biso 1.000000     H
    H   1.0     0.399519     0.049095     0.768972  Biso 1.000000     H
    H   1.0     0.899509     0.049095     0.768972  Biso 1.000000     H
    H   1.0     0.310063     0.038782     0.701673  Biso 1.000000     H
    H   1.0     0.810053     0.038782     0.701673  Biso 1.000000     H
    H   1.0     0.322975     0.142991     0.841687  Biso 1.000000     H
    H   1.0     0.822965     0.142991     0.841687  Biso 1.000000     H
    H   1.0     0.107174     0.669615     0.817502  Biso 1.000000     H
    H   1.0     0.607164     0.669615     0.817502  Biso 1.000000     H
    H   1.0     0.190912     0.606279     0.837579  Biso 1.000000     H
    H   1.0     0.690902     0.606279     0.837578  Biso 1.000000     H
    H   1.0     0.098848     0.544520     0.820695  Biso 1.000000     H
    H   1.0     0.598838     0.544520     0.820695  Biso 1.000000     H
    H   1.0     0.398948     0.718751     0.949771  Biso 1.000000     H
    H   1.0     0.898938     0.718751     0.949771  Biso 1.000000     H
    H   1.0     0.309279     0.662281     0.960212  Biso 1.000000     H
    H   1.0     0.809269     0.662281     0.960212  Biso 1.000000     H
    H   1.0     0.322746     0.697612     0.855501  Biso 1.000000     H
    H   1.0     0.822736     0.697612     0.855500  Biso 1.000000     H
    H   1.0     0.107283     0.148482     0.330421  Biso 1.000000     H
    H   1.0     0.607273     0.148483     0.330421  Biso 1.000000     H
    H   1.0     0.191067     0.231522     0.393196  Biso 1.000000     H
    H   1.0     0.691056     0.231522     0.393196  Biso 1.000000     H
    H   1.0     0.099050     0.276519     0.455415  Biso 1.000000     H
    H   1.0     0.599040     0.276519     0.455415  Biso 1.000000     H
    H   1.0     0.399503     0.231813     0.280753  Biso 1.000000     H
    H   1.0     0.899492     0.231812     0.280752  Biso 1.000000     H
    H   1.0     0.310050     0.299308     0.337822  Biso 1.000000     H
    H   1.0     0.810039     0.299308     0.337822  Biso 1.000000     H
    H   1.0     0.322986     0.159144     0.302044  Biso 1.000000     H
    H   1.0     0.822975     0.159144     0.302045  Biso 1.000000     H
    H   1.0     0.357359     0.330331     0.148423  Biso 1.000000     H
    H   1.0     0.857348     0.330331     0.148423  Biso 1.000000     H
    H   1.0     0.441141     0.393133     0.231466  Biso 1.000000     H
    H   1.0     0.941130     0.393133     0.231466  Biso 1.000000     H
    H   1.0     0.349106     0.455302     0.276485  Biso 1.000000     H
    H   1.0     0.849096     0.455302     0.276485  Biso 1.000000     H
    H   1.0     0.149631     0.280691     0.231758  Biso 1.000000     H
    H   1.0     0.649621     0.280691     0.231758  Biso 1.000000     H
    H   1.0     0.060187     0.337739     0.299288  Biso 1.000000     H
    H   1.0     0.560177     0.337739     0.299288  Biso 1.000000     H
    H   1.0     0.073056     0.301972     0.159132  Biso 1.000000     H
    H   1.0     0.573046     0.301972     0.159132  Biso 1.000000     H
    H   1.0     0.357101     0.853747     0.183010  Biso 1.000000     H
    H   1.0     0.857090     0.853747     0.183010  Biso 1.000000     H
    H   1.0     0.441135     0.770728     0.162429  Biso 1.000000     H
    H   1.0     0.941124     0.770728     0.162428  Biso 1.000000     H
    H   1.0     0.349205     0.724959     0.178837  Biso 1.000000     H
    H   1.0     0.849194     0.724959     0.178837  Biso 1.000000     H
    H   1.0     0.149406     0.769033     0.049177  Biso 1.000000     H
    H   1.0     0.649395     0.769033     0.049177  Biso 1.000000     H
    H   1.0     0.059951     0.701776     0.038894  Biso 1.000000     H
    H   1.0     0.559940     0.701775     0.038893  Biso 1.000000     H
    H   1.0     0.072909     0.841765     0.143143  Biso 1.000000     H
    H   1.0     0.572898     0.841765     0.143143  Biso 1.000000     H
    H   1.0     0.357133     0.817604     0.669544  Biso 1.000000     H
    H   1.0     0.857122     0.817604     0.669544  Biso 1.000000     H
    H   1.0     0.440885     0.837654     0.606252  Biso 1.000000     H
    H   1.0     0.940875     0.837654     0.606252  Biso 1.000000     H
    H   1.0     0.348842     0.820693     0.544399  Biso 1.000000     H
    H   1.0     0.848831     0.820693     0.544399  Biso 1.000000     H
    H   1.0     0.148959     0.949866     0.718735  Biso 1.000000     H
    H   1.0     0.648948     0.949866     0.718735  Biso 1.000000     H
    H   1.0     0.059300     0.960294     0.662200  Biso 1.000000     H
    H   1.0     0.559289     0.960294     0.662200  Biso 1.000000     H
    H   1.0     0.072752     0.855629     0.697618  Biso 1.000000     H
    H   1.0     0.572741     0.855629     0.697618  Biso 1.000000     H
    C   1.0     0.135388     0.204091     0.797141  Biso 1.000000     C
    C   1.0     0.635377     0.204090     0.797141  Biso 1.000000     C
    C   1.0     0.351392     0.095740     0.762013  Biso 1.000000     C
    C   1.0     0.851382     0.095740     0.762013  Biso 1.000000     C
    C   1.0     0.135245     0.591731     0.795866  Biso 1.000000     C
    C   1.0     0.635234     0.591731     0.795866  Biso 1.000000     C
    C   1.0     0.350868     0.665357     0.903175  Biso 1.000000     C
    C   1.0     0.850858     0.665357     0.903175  Biso 1.000000     C
    C   1.0     0.135426     0.204513     0.408115  Biso 1.000000     C
    C   1.0     0.635416     0.204513     0.408115  Biso 1.000000     C
    C   1.0     0.351400     0.238742     0.334346  Biso 1.000000     C
    C   1.0     0.851389     0.238743     0.334346  Biso 1.000000     C
    C   1.0     0.385476     0.408039     0.204476  Biso 1.000000     C
    C   1.0     0.885466     0.408039     0.204475  Biso 1.000000     C
    C   1.0     0.101501     0.334279     0.238714  Biso 1.000000     C
    C   1.0     0.601490     0.334279     0.238714  Biso 1.000000     C
    C   1.0     0.385360     0.797208     0.204150  Biso 1.000000     C
    C   1.0     0.885349     0.797208     0.204150  Biso 1.000000     C
    C   1.0     0.101308     0.762073     0.095838  Biso 1.000000     C
    C   1.0     0.601297     0.762073     0.095838  Biso 1.000000     C
    C   1.0     0.385230     0.795924     0.591683  Biso 1.000000     C
    C   1.0     0.885219     0.795924     0.591683  Biso 1.000000     C
    C   1.0     0.100883     0.903261     0.665336  Biso 1.000000     C
    C   1.0     0.600872     0.903261     0.665336  Biso 1.000000     C
    O   1.0     0.194439     0.382111     0.792196  Biso 1.000000     O
    O   1.0     0.694428     0.382111     0.792196  Biso 1.000000     O
    O   1.0     0.196819     0.376627     0.970003  Biso 1.000000     O
    O   1.0     0.696809     0.376627     0.970003  Biso 1.000000     O
    O   1.0     0.072103     0.408281     0.897265  Biso 1.000000     O
    O   1.0     0.572093     0.408281     0.897265  Biso 1.000000     O
    O   1.0     0.319961     0.255085     0.715685  Biso 1.000000     O
    O   1.0     0.819950     0.255085     0.715685  Biso 1.000000     O
    O   1.0     0.425859     0.113504     0.606768  Biso 1.000000     O
    O   1.0     0.925848     0.113504     0.606768  Biso 1.000000     O
    O   1.0     0.450165     0.258107     0.800750  Biso 1.000000     O
    O   1.0     0.950155     0.258107     0.800749  Biso 1.000000     O
    O   1.0     0.194546     0.409762     0.617130  Biso 1.000000     O
    O   1.0     0.694535     0.409762     0.617129  Biso 1.000000     O
    O   1.0     0.196851     0.593778     0.623873  Biso 1.000000     O
    O   1.0     0.696840     0.593778     0.623873  Biso 1.000000     O
    O   1.0     0.072340     0.489376     0.591721  Biso 1.000000     O
    O   1.0     0.572329     0.489376     0.591721  Biso 1.000000     O
    O   1.0     0.319532     0.460120     0.744259  Biso 1.000000     O
    O   1.0     0.819521     0.460120     0.744259  Biso 1.000000     O
    O   1.0     0.424173     0.492185     0.886791  Biso 1.000000     O
    O   1.0     0.924162     0.492185     0.886791  Biso 1.000000     O
    O   1.0     0.450247     0.540901     0.741561  Biso 1.000000     O
    O   1.0     0.950236     0.540900     0.741561  Biso 1.000000     O
    O   1.0     0.195027     0.206939     0.589737  Biso 1.000000     O
    O   1.0     0.695017     0.206938     0.589737  Biso 1.000000     O
    O   1.0     0.196996     0.030355     0.405779  Biso 1.000000     O
    O   1.0     0.696985     0.030354     0.405779  Biso 1.000000     O
    O   1.0     0.072556     0.102695     0.510780  Biso 1.000000     O
    O   1.0     0.572546     0.102695     0.510780  Biso 1.000000     O
    O   1.0     0.319903     0.284338     0.539527  Biso 1.000000     O
    O   1.0     0.819892     0.284339     0.539527  Biso 1.000000     O
    O   1.0     0.425511     0.393777     0.507134  Biso 1.000000     O
    O   1.0     0.925500     0.393777     0.507134  Biso 1.000000     O
    O   1.0     0.450298     0.199686     0.457977  Biso 1.000000     O
    O   1.0     0.950287     0.199686     0.457977  Biso 1.000000     O
    O   1.0     0.444920     0.589799     0.207083  Biso 1.000000     O
    O   1.0     0.944910     0.589798     0.207083  Biso 1.000000     O
    O   1.0     0.447039     0.405878     0.030437  Biso 1.000000     O
    O   1.0     0.947028     0.405877     0.030436  Biso 1.000000     O
    O   1.0     0.322531     0.510730     0.102674  Biso 1.000000     O
    O   1.0     0.822521     0.510730     0.102675  Biso 1.000000     O
    O   1.0     0.069920     0.539478     0.284340  Biso 1.000000     O
    O   1.0     0.569909     0.539478     0.284339  Biso 1.000000     O
    O   1.0     0.175642     0.507085     0.393687  Biso 1.000000     O
    O   1.0     0.675632     0.507085     0.393687  Biso 1.000000     O
    O   1.0     0.200299     0.457912     0.199601  Biso 1.000000     O
    O   1.0     0.700288     0.457912     0.199601  Biso 1.000000     O
    O   1.0     0.444459     0.792225     0.382157  Biso 1.000000     O
    O   1.0     0.944448     0.792224     0.382157  Biso 1.000000     O
    O   1.0     0.446795     0.970057     0.376707  Biso 1.000000     O
    O   1.0     0.946785     0.970056     0.376707  Biso 1.000000     O
    O   1.0     0.322099     0.897287     0.408302  Biso 1.000000     O
    O   1.0     0.822089     0.897287     0.408302  Biso 1.000000     O
    O   1.0     0.069950     0.715630     0.255088  Biso 1.000000     O
    O   1.0     0.569939     0.715630     0.255088  Biso 1.000000     O
    O   1.0     0.175791     0.606696     0.113428  Biso 1.000000     O
    O   1.0     0.675780     0.606696     0.113427  Biso 1.000000     O
    O   1.0     0.200168     0.800630     0.258102  Biso 1.000000     O
    O   1.0     0.700157     0.800630     0.258102  Biso 1.000000     O
    O   1.0     0.444635     0.617124     0.409869  Biso 1.000000     O
    O   1.0     0.944625     0.617124     0.409869  Biso 1.000000     O
    O   1.0     0.446827     0.623990     0.593937  Biso 1.000000     O
    O   1.0     0.946816     0.623989     0.593936  Biso 1.000000     O
    O   1.0     0.322382     0.591750     0.489374  Biso 1.000000     O
    O   1.0     0.822371     0.591750     0.489374  Biso 1.000000     O
    O   1.0     0.069571     0.744254     0.460130  Biso 1.000000     O
    O   1.0     0.569560     0.744253     0.460129  Biso 1.000000     O
    O   1.0     0.174225     0.886733     0.492168  Biso 1.000000     O
    O   1.0     0.674215     0.886733     0.492168  Biso 1.000000     O
    O   1.0     0.200254     0.741569     0.541026  Biso 1.000000     O
    O   1.0     0.700244     0.741569     0.541026  Biso 1.000000     O
   Al   1.0     0.222534     0.489134     0.096572  Biso 1.000000    Al
   Al   1.0     0.722523     0.489134     0.096571  Biso 1.000000    Al
   Al   1.0     0.222371     0.607620     0.510917  Biso 1.000000    Al
   Al   1.0     0.722360     0.607620     0.510917  Biso 1.000000    Al
   Al   1.0     0.222139     0.903534     0.392158  Biso 1.000000    Al
   Al   1.0     0.722128     0.903534     0.392158  Biso 1.000000    Al
   Al   1.0     0.472140     0.392186     0.903601  Biso 1.000000    Al
   Al   1.0     0.972129     0.392186     0.903601  Biso 1.000000    Al
   Al   1.0     0.472543     0.096632     0.489190  Biso 1.000000    Al
   Al   1.0     0.972532     0.096632     0.489190  Biso 1.000000    Al
   Al   1.0     0.472320     0.510933     0.607661  Biso 1.000000    Al
   Al   1.0     0.972309     0.510933     0.607661  Biso 1.000000    Al
   Al   1.0     0.257550     0.333023     0.666444  Biso 1.000000    Al
   Al   1.0     0.757540     0.333023     0.666444  Biso 1.000000    Al
   Al   1.0     0.007564     0.666431     0.333066  Biso 1.000000    Al
   Al   1.0     0.507553     0.666431     0.333066  Biso 1.000000    Al
    P   1.0     0.151482     0.348362     0.863794  Biso 1.000000     P
    P   1.0     0.651472     0.348362     0.863794  Biso 1.000000     P
    P   1.0     0.386234     0.187391     0.718399  Biso 1.000000     P
    P   1.0     0.886223     0.187391     0.718399  Biso 1.000000     P
    P   1.0     0.151580     0.515241     0.651589  Biso 1.000000     P
    P   1.0     0.651569     0.515241     0.651589  Biso 1.000000     P
    P   1.0     0.385667     0.530048     0.812222  Biso 1.000000     P
    P   1.0     0.885657     0.530048     0.812222  Biso 1.000000     P
    P   1.0     0.151812     0.136509     0.484564  Biso 1.000000     P
    P   1.0     0.651802     0.136509     0.484564  Biso 1.000000     P
    P   1.0     0.386197     0.282008     0.469384  Biso 1.000000     P
    P   1.0     0.886186     0.282008     0.469384  Biso 1.000000     P
    P   1.0     0.401797     0.484571     0.136551  Biso 1.000000     P
    P   1.0     0.901787     0.484570     0.136551  Biso 1.000000     P
    P   1.0     0.136253     0.469334     0.281962  Biso 1.000000     P
    P   1.0     0.636242     0.469334     0.281962  Biso 1.000000     P
    P   1.0     0.401479     0.863831     0.348410  Biso 1.000000     P
    P   1.0     0.901468     0.863830     0.348409  Biso 1.000000     P
    P   1.0     0.136198     0.718350     0.187395  Biso 1.000000     P
    P   1.0     0.636187     0.718350     0.187395  Biso 1.000000     P
    P   1.0     0.401607     0.651639     0.515293  Biso 1.000000     P
    P   1.0     0.901596     0.651639     0.515293  Biso 1.000000     P
    P   1.0     0.135696     0.812228     0.530073  Biso 1.000000     P
    P   1.0     0.635685     0.812227     0.530073  Biso 1.000000     P
