#======================================================================

# CRYSTAL DATA

#----------------------------------------------------------------------

data_VESTA_phase_1


_pd_phase_name                         MOF
_cell_length_a                         23.67500
_cell_length_b                         13.88100
_cell_length_c                         21.19300
_cell_angle_alpha                      89.88800
_cell_angle_beta                       89.98700
_cell_angle_gamma                      89.63200
_symmetry_space_group_name_H-M         "P 1"
_symmetry_Int_Tables_number            1

loop_
_symmetry_equiv_pos_as_xyz
   "x, y, z"

loop_
   _atom_site_label
   _atom_site_occupancy
   _atom_site_fract_x
   _atom_site_fract_y
   _atom_site_fract_z
   _atom_site_adp_type
   _atom_site_B_iso_or_equiv
   _atom_site_type_symbol
    H   1.0     0.399512     0.485827     0.361345  Biso 1.000000     H
    H   1.0     0.899385     0.489664     0.356042  Biso 1.000000     H
    H   1.0     0.294068     0.479436     0.355697  Biso 1.000000     H
    H   1.0     0.793891     0.483133     0.350633  Biso 1.000000     H
    H   1.0     0.289429     0.695714     0.502291  Biso 1.000000     H
    H   1.0     0.789452     0.683793     0.506428  Biso 1.000000     H
    H   1.0     0.395000     0.693694     0.500762  Biso 1.000000     H
    H   1.0     0.894918     0.681939     0.504819  Biso 1.000000     H
    H   1.0     0.396408     0.523363     0.637486  Biso 1.000000     H
    H   1.0     0.895945     0.514863     0.640028  Biso 1.000000     H
    H   1.0     0.290957     0.528668     0.644952  Biso 1.000000     H
    H   1.0     0.790523     0.519679     0.647641  Biso 1.000000     H
    H   1.0     0.286841     0.308410     0.501003  Biso 1.000000     H
    H   1.0     0.786282     0.314375     0.494509  Biso 1.000000     H
    H   1.0     0.392440     0.311744     0.500541  Biso 1.000000     H
    H   1.0     0.891869     0.317034     0.494584  Biso 1.000000     H
    H   1.0     0.103660     0.041848     0.885359  Biso 1.000000     H
    H   1.0     0.603252     0.040451     0.880417  Biso 1.000000     H
    H   1.0     0.208584     0.045560     0.878270  Biso 1.000000     H
    H   1.0     0.708135     0.044636     0.874158  Biso 1.000000     H
    H   1.0     0.210964     0.766969     0.970427  Biso 1.000000     H
    H   1.0     0.710649     0.772663     0.974558  Biso 1.000000     H
    H   1.0     0.105584     0.772893     0.969673  Biso 1.000000     H
    H   1.0     0.605379     0.778515     0.973845  Biso 1.000000     H
    H   1.0     0.106036     0.943017     0.070027  Biso 1.000000     H
    H   1.0     0.605793     0.942488     0.073747  Biso 1.000000     H
    H   1.0     0.211622     0.937673     0.071708  Biso 1.000000     H
    H   1.0     0.711245     0.936897     0.074649  Biso 1.000000     H
    H   1.0     0.208452     0.248717     0.083951  Biso 1.000000     H
    H   1.0     0.708516     0.248563     0.075183  Biso 1.000000     H
    H   1.0     0.102993     0.239883     0.081535  Biso 1.000000     H
    H   1.0     0.603127     0.239977     0.073267  Biso 1.000000     H
    H   1.0     0.100986     0.563396     0.588762  Biso 1.000000     H
    H   1.0     0.601023     0.562016     0.591895  Biso 1.000000     H
    H   1.0     0.206438     0.571792     0.590150  Biso 1.000000     H
    H   1.0     0.706552     0.569302     0.593500  Biso 1.000000     H
    H   1.0     0.209245     0.263212     0.562278  Biso 1.000000     H
    H   1.0     0.708379     0.263809     0.553795  Biso 1.000000     H
    H   1.0     0.103664     0.268350     0.562781  Biso 1.000000     H
    H   1.0     0.602716     0.269975     0.554172  Biso 1.000000     H
    H   1.0     0.105541     0.440158     0.413246  Biso 1.000000     H
    H   1.0     0.604837     0.439131     0.409629  Biso 1.000000     H
    H   1.0     0.211317     0.433455     0.411192  Biso 1.000000     H
    H   1.0     0.710464     0.431169     0.407233  Biso 1.000000     H
    H   1.0     0.210143     0.740994     0.443503  Biso 1.000000     H
    H   1.0     0.710883     0.736765     0.446512  Biso 1.000000     H
    H   1.0     0.104529     0.734056     0.443617  Biso 1.000000     H
    H   1.0     0.605251     0.731457     0.446542  Biso 1.000000     H
    H   1.0     0.398741     0.962597     0.117938  Biso 1.000000     H
    H   1.0     0.898506     0.962109     0.115912  Biso 1.000000     H
    H   1.0     0.293565     0.957270     0.124999  Biso 1.000000     H
    H   1.0     0.793491     0.957797     0.123602  Biso 1.000000     H
    H   1.0     0.289489     0.231829     0.027992  Biso 1.000000     H
    H   1.0     0.789682     0.229328     0.022932  Biso 1.000000     H
    H   1.0     0.395166     0.225663     0.026139  Biso 1.000000     H
    H   1.0     0.895320     0.222380     0.020826  Biso 1.000000     H
    H   1.0     0.395053     0.059619     0.926436  Biso 1.000000     H
    H   1.0     0.895189     0.060749     0.918169  Biso 1.000000     H
    H   1.0     0.289708     0.063825     0.925077  Biso 1.000000     H
    H   1.0     0.790167     0.065564     0.916536  Biso 1.000000     H
    H   1.0     0.293830     0.752086     0.924099  Biso 1.000000     H
    H   1.0     0.793359     0.754694     0.933049  Biso 1.000000     H
    H   1.0     0.399080     0.762155     0.928268  Biso 1.000000     H
    H   1.0     0.898391     0.764504     0.938183  Biso 1.000000     H
    H   1.0     0.000000     0.575231     0.668117  Biso 1.000000     H
    H   1.0     0.515446     0.577362     0.667988  Biso 1.000000     H
    H   1.0     0.010599     0.651288     0.775003  Biso 1.000000     H
    H   1.0     0.514851     0.653076     0.774876  Biso 1.000000     H
    H   1.0    -0.002928     0.856913     0.584202  Biso 1.000000     H
    H   1.0     0.487644     0.856601     0.584825  Biso 1.000000     H
    H   1.0     0.986437     0.994226     0.654005  Biso 1.000000     H
    H   1.0     0.488326     0.995241     0.654387  Biso 1.000000     H
    H   1.0    -0.006532     0.980516     0.736387  Biso 1.000000     H
    H   1.0     0.491050     0.980549     0.736482  Biso 1.000000     H
    H   1.0     0.022237     0.423344     0.330681  Biso 1.000000     H
    H   1.0     0.515094     0.425804     0.331664  Biso 1.000000     H
    H   1.0     0.021598     0.346816     0.223960  Biso 1.000000     H
    H   1.0     0.516367     0.348997     0.225073  Biso 1.000000     H
    H   1.0     0.975065     0.151849     0.412733  Biso 1.000000     H
    H   1.0     0.490943     0.146753     0.415772  Biso 1.000000     H
    H   1.0    -0.030711     0.013042     0.343213  Biso 1.000000     H
    H   1.0     0.478588     0.009978     0.346155  Biso 1.000000     H
    H   1.0     0.972736     0.027353     0.260839  Biso 1.000000     H
    H   1.0     0.485266     0.023172     0.263608  Biso 1.000000     H
    H   1.0     0.000000     0.924004     0.168220  Biso 1.000000     H
    H   1.0     0.521008     0.923499     0.168315  Biso 1.000000     H
    H   1.0     0.000000     0.845513     0.274632  Biso 1.000000     H
    H   1.0     0.521405     0.844956     0.274554  Biso 1.000000     H
    H   1.0    -0.022253     0.650883     0.084599  Biso 1.000000     H
    H   1.0     0.477433     0.651744     0.084721  Biso 1.000000     H
    H   1.0    -0.025659     0.510733     0.153411  Biso 1.000000     H
    H   1.0     0.472909     0.511865     0.153665  Biso 1.000000     H
    H   1.0    -0.022990     0.523876     0.235808  Biso 1.000000     H
    H   1.0     0.475206     0.525215     0.235975  Biso 1.000000     H
    H   1.0     0.019408     0.079003     0.830218  Biso 1.000000     H
    H   1.0     0.501770     0.078381     0.831753  Biso 1.000000     H
    H   1.0     0.019058     0.156595     0.723629  Biso 1.000000     H
    H   1.0     0.502740     0.156265     0.725031  Biso 1.000000     H
    H   1.0    -0.023364     0.352356     0.913189  Biso 1.000000     H
    H   1.0     0.497434     0.359229     0.916943  Biso 1.000000     H
    H   1.0    -0.028048     0.491698     0.843714  Biso 1.000000     H
    H   1.0     0.486946     0.497993     0.847816  Biso 1.000000     H
    H   1.0    -0.027072     0.477393     0.761502  Biso 1.000000     H
    H   1.0     0.489153     0.484365     0.765311  Biso 1.000000     H
    C   1.0     0.373159     0.530144     0.392106  Biso 1.000000     C
    C   1.0     0.873070     0.530331     0.388926  Biso 1.000000     C
    C   1.0     0.314501     0.526965     0.389459  Biso 1.000000     C
    C   1.0     0.814382     0.527170     0.386343  Biso 1.000000     C
    C   1.0     0.282427     0.587232     0.428920  Biso 1.000000     C
    C   1.0     0.782373     0.583210     0.428426  Biso 1.000000     C
    C   1.0     0.311929     0.648231     0.469874  Biso 1.000000     C
    C   1.0     0.811940     0.639804     0.471963  Biso 1.000000     C
    C   1.0     0.370617     0.646878     0.469895  Biso 1.000000     C
    C   1.0     0.870616     0.638461     0.471867  Biso 1.000000     C
    C   1.0     0.370150     0.477848     0.607738  Biso 1.000000     C
    C   1.0     0.869675     0.472659     0.608290  Biso 1.000000     C
    C   1.0     0.311489     0.480411     0.611422  Biso 1.000000     C
    C   1.0     0.811025     0.474960     0.612055  Biso 1.000000     C
    C   1.0     0.279575     0.418658     0.573277  Biso 1.000000     C
    C   1.0     0.779098     0.417330     0.571249  Biso 1.000000     C
    C   1.0     0.309247     0.357044     0.532432  Biso 1.000000     C
    C   1.0     0.808709     0.359720     0.527972  Biso 1.000000     C
    C   1.0     0.367908     0.359086     0.531292  Biso 1.000000     C
    C   1.0     0.867365     0.361645     0.527022  Biso 1.000000     C
    C   1.0     0.129330     0.982206     0.903103  Biso 1.000000     C
    C   1.0     0.628955     0.982618     0.900584  Biso 1.000000     C
    C   1.0     0.187959     0.984099     0.900189  Biso 1.000000     C
    C   1.0     0.687618     0.984623     0.897862  Biso 1.000000     C
    C   1.0     0.219552     0.906636     0.924598  Biso 1.000000     C
    C   1.0     0.719314     0.909071     0.924640  Biso 1.000000     C
    C   1.0     0.189224     0.828950     0.949933  Biso 1.000000     C
    C   1.0     0.688977     0.833182     0.952215  Biso 1.000000     C
    C   1.0     0.130524     0.831930     0.950396  Biso 1.000000     C
    C   1.0     0.630294     0.836057     0.952656  Biso 1.000000     C
    C   1.0     0.130897     0.008652     0.073017  Biso 1.000000     C
    C   1.0     0.630684     0.008249     0.073921  Biso 1.000000     C
    C   1.0     0.189581     0.006598     0.074453  Biso 1.000000     C
    C   1.0     0.689355     0.006078     0.074925  Biso 1.000000     C
    C   1.0     0.219571     0.093369     0.077246  Biso 1.000000     C
    C   1.0     0.719503     0.092795     0.074288  Biso 1.000000     C
    C   1.0     0.187828     0.179082     0.079816  Biso 1.000000     C
    C   1.0     0.687849     0.178716     0.073802  Biso 1.000000     C
    C   1.0     0.129171     0.175103     0.078575  Biso 1.000000     C
    C   1.0     0.629184     0.174902     0.072984  Biso 1.000000     C
    C   1.0     0.126937     0.498822     0.583349  Biso 1.000000     C
    C   1.0     0.626796     0.497830     0.584033  Biso 1.000000     C
    C   1.0     0.185623     0.502601     0.584347  Biso 1.000000     C
    C   1.0     0.685475     0.500986     0.585069  Biso 1.000000     C
    C   1.0     0.217175     0.417833     0.575414  Biso 1.000000     C
    C   1.0     0.716724     0.416805     0.573086  Biso 1.000000     C
    C   1.0     0.187133     0.331816     0.567498  Biso 1.000000     C
    C   1.0     0.686448     0.331953     0.561752  Biso 1.000000     C
    C   1.0     0.128422     0.333904     0.567879  Biso 1.000000     C
    C   1.0     0.627753     0.334523     0.562207  Biso 1.000000     C
    C   1.0     0.130855     0.504830     0.419202  Biso 1.000000     C
    C   1.0     0.630333     0.503191     0.417238  Biso 1.000000     C
    C   1.0     0.189564     0.502054     0.417999  Biso 1.000000     C
    C   1.0     0.689054     0.499620     0.415789  Biso 1.000000     C
    C   1.0     0.220021     0.587086     0.427793  Biso 1.000000     C
    C   1.0     0.719939     0.583657     0.427409  Biso 1.000000     C
    C   1.0     0.188897     0.672266     0.437295  Biso 1.000000     C
    C   1.0     0.689256     0.668725     0.438863  Biso 1.000000     C
    C   1.0     0.130216     0.669293     0.437102  Biso 1.000000     C
    C   1.0     0.630564     0.666618     0.438675  Biso 1.000000     C
    C   1.0     0.372608     0.020363     0.098381  Biso 1.000000     C
    C   1.0     0.872487     0.019400     0.095604  Biso 1.000000     C
    C   1.0     0.313979     0.017848     0.101768  Biso 1.000000     C
    C   1.0     0.813877     0.017437     0.099328  Biso 1.000000     C
    C   1.0     0.282015     0.094202     0.076450  Biso 1.000000     C
    C   1.0     0.781954     0.093193     0.073155  Biso 1.000000     C
    C   1.0     0.311777     0.170926     0.049160  Biso 1.000000     C
    C   1.0     0.811828     0.168849     0.044782  Biso 1.000000     C
    C   1.0     0.370454     0.167967     0.047460  Biso 1.000000     C
    C   1.0     0.870485     0.165523     0.042897  Biso 1.000000     C
    C   1.0     0.370486     0.993495     0.926313  Biso 1.000000     C
    C   1.0     0.870646     0.994822     0.921990  Biso 1.000000     C
    C   1.0     0.311824     0.994860     0.924861  Biso 1.000000     C
    C   1.0     0.811974     0.996539     0.920279  Biso 1.000000     C
    C   1.0     0.282026     0.907734     0.924837  Biso 1.000000     C
    C   1.0     0.781838     0.910006     0.924989  Biso 1.000000     C
    C   1.0     0.314091     0.822255     0.925808  Biso 1.000000     C
    C   1.0     0.813712     0.824756     0.930927  Biso 1.000000     C
    C   1.0     0.372714     0.826876     0.927645  Biso 1.000000     C
    C   1.0     0.872324     0.829130     0.933071  Biso 1.000000     C
    C   1.0     0.001693     0.669878     0.554719  Biso 1.000000     C
    C   1.0     0.501295     0.670567     0.555103  Biso 1.000000     C
    C   1.0     0.003060     0.712575     0.619570  Biso 1.000000     C
    C   1.0     0.501484     0.713469     0.619840  Biso 1.000000     C
    C   1.0     0.000000     0.652991     0.673190  Biso 1.000000     C
    C   1.0     0.509427     0.654554     0.673226  Biso 1.000000     C
    C   1.0     0.007632     0.695211     0.732454  Biso 1.000000     C
    C   1.0     0.508484     0.696473     0.732578  Biso 1.000000     C
    C   1.0     0.999893     0.812313     0.626529  Biso 1.000000     C
    C   1.0     0.493418     0.812460     0.626998  Biso 1.000000     C
    C   1.0     0.000000     0.856203     0.686604  Biso 1.000000     C
    C   1.0     0.492323     0.855896     0.687139  Biso 1.000000     C
    C   1.0     0.003738     0.795404     0.740989  Biso 1.000000     C
    C   1.0     0.499948     0.795751     0.741221  Biso 1.000000     C
    C   1.0     0.002095     0.833184     0.806844  Biso 1.000000     C
    C   1.0     0.499798     0.833602     0.807087  Biso 1.000000     C
    C   1.0    -0.000404     0.333378     0.443216  Biso 1.000000     C
    C   1.0     0.500743     0.333421     0.444812  Biso 1.000000     C
    C   1.0    -0.000906     0.290856     0.378342  Biso 1.000000     C
    C   1.0     0.502581     0.289835     0.380257  Biso 1.000000     C
    C   1.0     0.000000     0.347515     0.325263  Biso 1.000000     C
    C   1.0     0.510387     0.348401     0.326709  Biso 1.000000     C
    C   1.0     0.000000     0.305303     0.266025  Biso 1.000000     C
    C   1.0     0.510711     0.305819     0.267572  Biso 1.000000     C
    C   1.0     0.985026     0.194162     0.370811  Biso 1.000000     C
    C   1.0     0.496254     0.190603     0.373445  Biso 1.000000     C
    C   1.0    -0.016932     0.150658     0.310678  Biso 1.000000     C
    C   1.0     0.496733     0.146353     0.313478  Biso 1.000000     C
    C   1.0     0.997039     0.208100     0.256994  Biso 1.000000     C
    C   1.0     0.503434     0.206295     0.259149  Biso 1.000000     C
    C   1.0     0.998286     0.169296     0.191402  Biso 1.000000     C
    C   1.0     0.502251     0.168300     0.193392  Biso 1.000000     C
    C   1.0     0.999203     0.833755     0.054977  Biso 1.000000     C
    C   1.0     0.500517     0.833965     0.055109  Biso 1.000000     C
    C   1.0     0.998289     0.790827     0.119828  Biso 1.000000     C
    C   1.0     0.499440     0.791050     0.119926  Biso 1.000000     C
    C   1.0     0.000000     0.847540     0.173269  Biso 1.000000     C
    C   1.0     0.511605     0.847332     0.173329  Biso 1.000000     C
    C   1.0     0.009303     0.804162     0.232303  Biso 1.000000     C
    C   1.0     0.511082     0.803942     0.232365  Biso 1.000000     C
    C   1.0    -0.013663     0.693136     0.126813  Biso 1.000000     C
    C   1.0     0.486499     0.693749     0.126916  Biso 1.000000     C
    C   1.0    -0.015181     0.648589     0.186692  Biso 1.000000     C
    C   1.0     0.484458     0.649369     0.186806  Biso 1.000000     C
    C   1.0    -0.002644     0.705885     0.240723  Biso 1.000000     C
    C   1.0     0.497842     0.706169     0.240797  Biso 1.000000     C
    C   1.0     0.999153     0.665724     0.306066  Biso 1.000000     C
    C   1.0     0.499291     0.665921     0.306133  Biso 1.000000     C
    C   1.0    -0.000397     0.169463     0.943150  Biso 1.000000     C
    C   1.0     0.499100     0.171378     0.945461  Biso 1.000000     C
    C   1.0    -0.001410     0.212349     0.878315  Biso 1.000000     C
    C   1.0     0.499544     0.215166     0.880852  Biso 1.000000     C
    C   1.0     0.010415     0.155420     0.825017  Biso 1.000000     C
    C   1.0     0.501177     0.156250     0.826957  Biso 1.000000     C
    C   1.0     0.009170     0.198109     0.765820  Biso 1.000000     C
    C   1.0     0.501407     0.199392     0.767875  Biso 1.000000     C
    C   1.0    -0.014572     0.309782     0.871079  Biso 1.000000     C
    C   1.0     0.498209     0.315182     0.874385  Biso 1.000000     C
    C   1.0     0.982804     0.353591     0.811024  Biso 1.000000     C
    C   1.0     0.497990     0.359832     0.814489  Biso 1.000000     C
    C   1.0     0.995605     0.295931     0.757116  Biso 1.000000     C
    C   1.0     0.499472     0.299783     0.759878  Biso 1.000000     C
    C   1.0    -0.003891     0.335087     0.691539  Biso 1.000000     C
    C   1.0     0.498306     0.338647     0.694183  Biso 1.000000     C
    N   1.0     0.400914     0.588841     0.431794  Biso 1.000000     N
    N   1.0     0.900907     0.584783     0.431113  Biso 1.000000     N
    N   1.0     0.398058     0.418443     0.568222  Biso 1.000000     N
    N   1.0     0.897578     0.417263     0.566339  Biso 1.000000     N
    N   1.0     0.100878     0.907681     0.928029  Biso 1.000000     N
    N   1.0     0.600567     0.909953     0.927887  Biso 1.000000     N
    N   1.0     0.101012     0.091352     0.074504  Biso 1.000000     N
    N   1.0     0.600899     0.091033     0.072410  Biso 1.000000     N
    N   1.0     0.098608     0.416125     0.574814  Biso 1.000000     N
    N   1.0     0.598247     0.416224     0.572499  Biso 1.000000     N
    N   1.0     0.101510     0.586852     0.428829  Biso 1.000000     N
    N   1.0     0.601411     0.585075     0.428707  Biso 1.000000     N
    N   1.0     0.400512     0.093682     0.071204  Biso 1.000000     N
    N   1.0     0.900491     0.091673     0.067346  Biso 1.000000     N
    N   1.0     0.400605     0.911099     0.928280  Biso 1.000000     N
    N   1.0     0.900554     0.912821     0.928964  Biso 1.000000     N
    N   1.0    -0.000170     0.954754     0.691596  Biso 1.000000     N
    N   1.0     0.481673     0.953017     0.692881  Biso 1.000000     N
    N   1.0     0.966245     0.056547     0.304731  Biso 1.000000     N
    N   1.0     0.492536     0.048161     0.308389  Biso 1.000000     N
    N   1.0    -0.030201     0.553346     0.192046  Biso 1.000000     N
    N   1.0     0.468138     0.554692     0.192178  Biso 1.000000     N
    N   1.0     0.966379     0.448577     0.805528  Biso 1.000000     N
    N   1.0     0.498442     0.458545     0.809529  Biso 1.000000     N
    O   1.0     0.999879     0.725206     0.506887  Biso 1.000000     O
    O   1.0     0.498630     0.725650     0.507143  Biso 1.000000     O
    O   1.0     0.002367     0.577651     0.548096  Biso 1.000000     O
    O   1.0     0.503738     0.578460     0.548723  Biso 1.000000     O
    O   1.0     0.002456     0.774420     0.853059  Biso 1.000000     O
    O   1.0     0.496384     0.774986     0.853169  Biso 1.000000     O
    O   1.0     0.999972     0.925186     0.815969  Biso 1.000000     O
    O   1.0     0.503543     0.925338     0.816103  Biso 1.000000     O
    O   1.0    -0.009825     0.279323     0.490536  Biso 1.000000     O
    O   1.0     0.496057     0.278832     0.492826  Biso 1.000000     O
    O   1.0     0.009713     0.423744     0.450482  Biso 1.000000     O
    O   1.0     0.503927     0.425379     0.451028  Biso 1.000000     O
    O   1.0     0.009860     0.225814     0.145780  Biso 1.000000     O
    O   1.0     0.511235     0.225508     0.147412  Biso 1.000000     O
    O   1.0    -0.012092     0.079284     0.181841  Biso 1.000000     O
    O   1.0     0.491609     0.078310     0.184010  Biso 1.000000     O
    O   1.0    -0.005002     0.778698     0.007376  Biso 1.000000     O
    O   1.0     0.498631     0.778639     0.007452  Biso 1.000000     O
    O   1.0     0.005022     0.925403     0.048006  Biso 1.000000     O
    O   1.0     0.503941     0.925998     0.048181  Biso 1.000000     O
    O   1.0     0.009790     0.721622     0.352087  Biso 1.000000     O
    O   1.0     0.510964     0.721392     0.352078  Biso 1.000000     O
    O   1.0    -0.010010     0.575069     0.314956  Biso 1.000000     O
    O   1.0     0.488798     0.575751     0.315085  Biso 1.000000     O
    O   1.0    -0.007398     0.224173     0.990626  Biso 1.000000     O
    O   1.0     0.498314     0.226184     0.993464  Biso 1.000000     O
    O   1.0     0.000000     0.078127     0.950063  Biso 1.000000     O
    O   1.0     0.499075     0.079006     0.951831  Biso 1.000000     O
    O   1.0     0.000000     0.279051     0.645693  Biso 1.000000     O
    O   1.0     0.506355     0.281366     0.648092  Biso 1.000000     O
    O   1.0    -0.014823     0.425315     0.682364  Biso 1.000000     O
    O   1.0     0.488762     0.429268     0.685126  Biso 1.000000     O
   Cd   1.0     0.000000     0.597121     0.429330  Biso 1.000000    Cd
   Cd   1.0     0.501079     0.598214     0.429689  Biso 1.000000    Cd
   Cd   1.0     0.998096     0.404626     0.568651  Biso 1.000000    Cd
   Cd   1.0     0.498068     0.405622     0.570386  Biso 1.000000    Cd
   Cd   1.0     0.000648     0.904480     0.929049  Biso 1.000000    Cd
   Cd   1.0     0.500507     0.905251     0.929451  Biso 1.000000    Cd
   Cd   1.0     0.000837     0.098647     0.068938  Biso 1.000000    Cd
   Cd   1.0     0.500766     0.098853     0.070741  Biso 1.000000    Cd
