#======================================================================

# CRYSTAL DATA

#----------------------------------------------------------------------

data_VESTA_phase_1


_pd_phase_name                         MOF
_cell_length_a                         15.59100
_cell_length_b                         15.58600
_cell_length_c                         15.61000
_cell_angle_alpha                      120.18000
_cell_angle_beta                       108.30800
_cell_angle_gamma                      71.72100
_symmetry_space_group_name_H-M         "P 1"
_symmetry_Int_Tables_number            1

loop_
_symmetry_equiv_pos_as_xyz
   "x, y, z"

loop_
   _atom_site_label
   _atom_site_occupancy
   _atom_site_fract_x
   _atom_site_fract_y
   _atom_site_fract_z
   _atom_site_adp_type
   _atom_site_B_iso_or_equiv
   _atom_site_type_symbol
    H   1.0     0.413356     0.623782     0.855261  Biso 1.000000     H
    H   1.0     0.913365     0.623782     0.855260  Biso 1.000000     H
    H   1.0     0.453444     0.442819     0.738588  Biso 1.000000     H
    H   1.0     0.953453     0.442819     0.738587  Biso 1.000000     H
    H   1.0     0.138623     0.587464     0.084680  Biso 1.000000     H
    H   1.0     0.638632     0.587464     0.084681  Biso 1.000000     H
    H   1.0     0.177643     0.402486     0.968529  Biso 1.000000     H
    H   1.0     0.677653     0.402486     0.968529  Biso 1.000000     H
    H   1.0     0.013526     0.308933     0.639830  Biso 1.000000     H
    H   1.0     0.513534     0.308934     0.639830  Biso 1.000000     H
    H   1.0     0.427674     0.234307     0.505128  Biso 1.000000     H
    H   1.0     0.927683     0.234307     0.505128  Biso 1.000000     H
    H   1.0     0.364236     0.147784     0.321842  Biso 1.000000     H
    H   1.0     0.864246     0.147783     0.321842  Biso 1.000000     H
    H   1.0     0.065321     0.891043     0.283227  Biso 1.000000     H
    H   1.0     0.565330     0.891044     0.283227  Biso 1.000000     H
    H   1.0     0.141376     0.968173     0.463521  Biso 1.000000     H
    H   1.0     0.641385     0.968174     0.463521  Biso 1.000000     H
    H   1.0     0.159045     0.015508     0.615290  Biso 1.000000     H
    H   1.0     0.659054     0.015509     0.615290  Biso 1.000000     H
    H   1.0     0.281499     0.949649     0.672601  Biso 1.000000     H
    H   1.0     0.781509     0.949650     0.672600  Biso 1.000000     H
    H   1.0     0.401135     0.856965     0.759791  Biso 1.000000     H
    H   1.0     0.901145     0.856965     0.759790  Biso 1.000000     H
    H   1.0     0.366000     0.111457     0.046666  Biso 1.000000     H
    H   1.0     0.866011     0.111457     0.046665  Biso 1.000000     H
    H   1.0     0.245259     0.206074     0.959441  Biso 1.000000     H
    H   1.0     0.745270     0.206074     0.959440  Biso 1.000000     H
    H   1.0     0.163626     0.145016     0.376593  Biso 1.000000     H
    H   1.0     0.663635     0.145016     0.376592  Biso 1.000000     H
    H   1.0     0.203489     0.261689     0.557425  Biso 1.000000     H
    H   1.0     0.703498     0.261689     0.557425  Biso 1.000000     H
    H   1.0     0.389114     0.915549     0.412880  Biso 1.000000     H
    H   1.0     0.889123     0.915549     0.412880  Biso 1.000000     H
    H   1.0     0.427858     0.031640     0.597718  Biso 1.000000     H
    H   1.0     0.927867     0.031640     0.597718  Biso 1.000000     H
    H   1.0     0.263153     0.360543     0.691529  Biso 1.000000     H
    H   1.0     0.763162     0.360543     0.691528  Biso 1.000000     H
    H   1.0     0.177415     0.495311     0.766205  Biso 1.000000     H
    H   1.0     0.677423     0.495311     0.766205  Biso 1.000000     H
    H   1.0     0.113805     0.678727     0.853031  Biso 1.000000     H
    H   1.0     0.613813     0.678727     0.853031  Biso 1.000000     H
    H   1.0     0.315038     0.717129     0.109408  Biso 1.000000     H
    H   1.0     0.815047     0.717129     0.109407  Biso 1.000000     H
    H   1.0     0.391201     0.536718     0.032042  Biso 1.000000     H
    H   1.0     0.891210     0.536718     0.032041  Biso 1.000000     H
    H   1.0     0.409367     0.384710     0.984317  Biso 1.000000     H
    H   1.0     0.909375     0.384710     0.984317  Biso 1.000000     H
    H   1.0     0.034470     0.327927     0.048128  Biso 1.000000     H
    H   1.0     0.534482     0.327927     0.048126  Biso 1.000000     H
    H   1.0     0.153976     0.240777     0.141074  Biso 1.000000     H
    H   1.0     0.653989     0.240777     0.141072  Biso 1.000000     H
    H   1.0     0.114438     0.953148     0.889643  Biso 1.000000     H
    H   1.0     0.614445     0.953148     0.889644  Biso 1.000000     H
    H   1.0    -0.006474     0.040216     0.795041  Biso 1.000000     H
    H   1.0     0.493533     0.040216     0.795042  Biso 1.000000     H
    C   1.0     0.499003     0.727737     0.045577  Biso 1.000000     C
    C   1.0     0.999011     0.727736     0.045576  Biso 1.000000     C
    C   1.0     0.023888     0.617124     0.976829  Biso 1.000000     C
    C   1.0     0.523897     0.617124     0.976830  Biso 1.000000     C
    C   1.0     0.472223     0.575072     0.878873  Biso 1.000000     C
    C   1.0     0.972231     0.575072     0.878872  Biso 1.000000     C
    C   1.0    -0.004403     0.473277     0.813807  Biso 1.000000     C
    C   1.0     0.495606     0.473277     0.813807  Biso 1.000000     C
    C   1.0     0.070219     0.409625     0.844990  Biso 1.000000     C
    C   1.0     0.570228     0.409625     0.844990  Biso 1.000000     C
    C   1.0     0.098093     0.554307     0.008820  Biso 1.000000     C
    C   1.0     0.598102     0.554307     0.008821  Biso 1.000000     C
    C   1.0     0.120205     0.451886     0.944287  Biso 1.000000     C
    C   1.0     0.620215     0.451886     0.944288  Biso 1.000000     C
    C   1.0     0.096309     0.300690     0.776542  Biso 1.000000     C
    C   1.0     0.596318     0.300691     0.776542  Biso 1.000000     C
    C   1.0     0.058921     0.259719     0.672796  Biso 1.000000     C
    C   1.0     0.558929     0.259720     0.672797  Biso 1.000000     C
    C   1.0     0.080888     0.155594     0.611766  Biso 1.000000     C
    C   1.0     0.580897     0.155594     0.611766  Biso 1.000000     C
    C   1.0     0.040746     0.108703     0.502542  Biso 1.000000     C
    C   1.0     0.540755     0.108703     0.502542  Biso 1.000000     C
    C   1.0     0.462620     0.159103     0.459318  Biso 1.000000     C
    C   1.0     0.962629     0.159102     0.459318  Biso 1.000000     C
    C   1.0     0.425627     0.111155     0.357161  Biso 1.000000     C
    C   1.0     0.925636     0.111155     0.357160  Biso 1.000000     C
    C   1.0     0.037674     0.967063     0.335769  Biso 1.000000     C
    C   1.0     0.537683     0.967064     0.335769  Biso 1.000000     C
    C   1.0     0.078652     0.000000     0.437012  Biso 1.000000     C
    C   1.0     0.578660     0.000000     0.437012  Biso 1.000000     C
    C   1.0     0.142448     0.097137     0.658276  Biso 1.000000     C
    C   1.0     0.642458     0.097137     0.658276  Biso 1.000000     C
    C   1.0     0.182572     0.143546     0.760868  Biso 1.000000     C
    C   1.0     0.682582     0.143546     0.760868  Biso 1.000000     C
    C   1.0     0.253542     0.084950     0.810585  Biso 1.000000     C
    C   1.0     0.753552     0.084950     0.810585  Biso 1.000000     C
    C   1.0     0.297827     0.985584     0.754813  Biso 1.000000     C
    C   1.0     0.797837     0.985584     0.754813  Biso 1.000000     C
    C   1.0     0.365329     0.932875     0.803085  Biso 1.000000     C
    C   1.0     0.865339     0.932875     0.803084  Biso 1.000000     C
    C   1.0     0.390275     0.977758     0.908708  Biso 1.000000     C
    C   1.0     0.890285     0.977758     0.908708  Biso 1.000000     C
    C   1.0     0.346466     0.076608     0.964722  Biso 1.000000     C
    C   1.0     0.846477     0.076608     0.964722  Biso 1.000000     C
    C   1.0     0.279429     0.129400     0.916252  Biso 1.000000     C
    C   1.0     0.779439     0.129400     0.916252  Biso 1.000000     C
    C   1.0     0.468170     0.925191     0.960593  Biso 1.000000     C
    C   1.0     0.968180     0.925191     0.960592  Biso 1.000000     C
    C   1.0     0.249569     0.954676     0.272712  Biso 1.000000     C
    C   1.0     0.749578     0.954676     0.272712  Biso 1.000000     C
    C   1.0     0.274285     0.023402     0.383237  Biso 1.000000     C
    C   1.0     0.774294     0.023402     0.383236  Biso 1.000000     C
    C   1.0     0.222486     0.121382     0.425260  Biso 1.000000     C
    C   1.0     0.722495     0.121381     0.425260  Biso 1.000000     C
    C   1.0     0.245730     0.186448     0.526989  Biso 1.000000     C
    C   1.0     0.745739     0.186448     0.526989  Biso 1.000000     C
    C   1.0     0.320326     0.155228     0.590590  Biso 1.000000     C
    C   1.0     0.820335     0.155228     0.590590  Biso 1.000000     C
    C   1.0     0.348489     0.991422     0.446012  Biso 1.000000     C
    C   1.0     0.848498     0.991422     0.446011  Biso 1.000000     C
    C   1.0     0.370444     0.055903     0.548348  Biso 1.000000     C
    C   1.0     0.870453     0.055903     0.548348  Biso 1.000000     C
    C   1.0     0.346347     0.223658     0.699440  Biso 1.000000     C
    C   1.0     0.846356     0.223658     0.699440  Biso 1.000000     C
    C   1.0     0.308765     0.327482     0.740554  Biso 1.000000     C
    C   1.0     0.808774     0.327482     0.740553  Biso 1.000000     C
    C   1.0     0.330823     0.388475     0.844568  Biso 1.000000     C
    C   1.0     0.830832     0.388475     0.844567  Biso 1.000000     C
    C   1.0     0.290549     0.497772     0.891618  Biso 1.000000     C
    C   1.0     0.790557     0.497773     0.891617  Biso 1.000000     C
    C   1.0     0.212332     0.541093     0.841404  Biso 1.000000     C
    C   1.0     0.712341     0.541093     0.841404  Biso 1.000000     C
    C   1.0     0.175249     0.643311     0.889498  Biso 1.000000     C
    C   1.0     0.675258     0.643311     0.889497  Biso 1.000000     C
    C   1.0     0.287374     0.664588     0.033420  Biso 1.000000     C
    C   1.0     0.787383     0.664588     0.033419  Biso 1.000000     C
    C   1.0     0.328428     0.563282    -0.010434  Biso 1.000000     C
    C   1.0     0.828437     0.563282    -0.010435  Biso 1.000000     C
    C   1.0     0.392667     0.341858     0.902776  Biso 1.000000     C
    C   1.0     0.892675     0.341858     0.902775  Biso 1.000000     C
    C   1.0     0.432923     0.239225     0.856230  Biso 1.000000     C
    C   1.0     0.932932     0.239225     0.856230  Biso 1.000000     C
    C   1.0     0.004092     0.189509     0.914645  Biso 1.000000     C
    C   1.0     0.504102     0.189509     0.914645  Biso 1.000000     C
    C   1.0     0.049681     0.245592     0.013133  Biso 1.000000     C
    C   1.0     0.549692     0.245592     0.013132  Biso 1.000000     C
    C   1.0     0.117142     0.197361     0.065891  Biso 1.000000     C
    C   1.0     0.617153     0.197361     0.065890  Biso 1.000000     C
    C   1.0     0.140797     0.091519     0.021915  Biso 1.000000     C
    C   1.0     0.640806     0.091519     0.021915  Biso 1.000000     C
    C   1.0     0.095854     0.035223     0.923825  Biso 1.000000     C
    C   1.0     0.595862     0.035222     0.923826  Biso 1.000000     C
    C   1.0     0.028745     0.083626     0.871014  Biso 1.000000     C
    C   1.0     0.528753     0.083626     0.871015  Biso 1.000000     C
    C   1.0     0.218448     0.039599     0.074641  Biso 1.000000     C
    C   1.0     0.718458     0.039598     0.074640  Biso 1.000000     C
    N   1.0     0.158344     0.243528     0.818840  Biso 1.000000     N
    N   1.0     0.658354     0.243528     0.818840  Biso 1.000000     N
    N   1.0     0.461781     0.000000     0.296027  Biso 1.000000     N
    N   1.0     0.961790     0.000000     0.296027  Biso 1.000000     N
    N   1.0     0.408597     0.181251     0.756379  Biso 1.000000     N
    N   1.0     0.908606     0.181251     0.756379  Biso 1.000000     N
    N   1.0     0.211390     0.704403    -0.015355  Biso 1.000000     N
    N   1.0     0.711398     0.704403    -0.015356  Biso 1.000000     N
    O   1.0     0.414625     0.768772     0.026958  Biso 1.000000     O
    O   1.0     0.914634     0.768772     0.026957  Biso 1.000000     O
    O   1.0     0.060350     0.773566     0.115881  Biso 1.000000     O
    O   1.0     0.560359     0.773566     0.115882  Biso 1.000000     O
    O   1.0     0.479355     0.961239     0.057631  Biso 1.000000     O
    O   1.0     0.979365     0.961238     0.057630  Biso 1.000000     O
    O   1.0     0.024983     0.851319     0.910904  Biso 1.000000     O
    O   1.0     0.524990     0.851319     0.910905  Biso 1.000000     O
    O   1.0     0.165156     0.973113     0.231657  Biso 1.000000     O
    O   1.0     0.665165     0.973113     0.231656  Biso 1.000000     O
    O   1.0     0.311073     0.884592     0.227042  Biso 1.000000     O
    O   1.0     0.811082     0.884592     0.227041  Biso 1.000000     O
    O   1.0     0.229280     0.942569     0.039087  Biso 1.000000     O
    O   1.0     0.729289     0.942569     0.039086  Biso 1.000000     O
    O   1.0     0.275440     0.089327     0.148310  Biso 1.000000     O
    O   1.0     0.775452     0.089326     0.148307  Biso 1.000000     O
   Cd   1.0     0.384373     0.931829     0.135051  Biso 1.000000    Cd
   Cd   1.0     0.884382     0.931829     0.135050  Biso 1.000000    Cd
   Cd   1.0     0.134210     0.865510     0.068757  Biso 1.000000    Cd
   Cd   1.0     0.634218     0.865511     0.068757  Biso 1.000000    Cd
