#======================================================================

# CRYSTAL DATA

#----------------------------------------------------------------------

data_VESTA_phase_1


_pd_phase_name                         MOF
_cell_length_a                         14.65300
_cell_length_b                         14.75500
_cell_length_c                         20.40500
_cell_angle_alpha                      90.03500
_cell_angle_beta                       90.03300
_cell_angle_gamma                      90.10800
_symmetry_space_group_name_H-M         "P 1"
_symmetry_Int_Tables_number            1

loop_
_symmetry_equiv_pos_as_xyz
   "x, y, z"

loop_
   _atom_site_label
   _atom_site_occupancy
   _atom_site_fract_x
   _atom_site_fract_y
   _atom_site_fract_z
   _atom_site_adp_type
   _atom_site_B_iso_or_equiv
   _atom_site_type_symbol
    H   1.0     0.558116     0.198816     0.216210  Biso 1.000000     H
    H   1.0     0.437232     0.248016     0.139749  Biso 1.000000     H
    H   1.0     0.694457     0.561563     0.021165  Biso 1.000000     H
    H   1.0     0.823741     0.522798     0.097192  Biso 1.000000     H
    H   1.0     0.803364     0.398985     0.178076  Biso 1.000000     H
    H   1.0     0.941690     0.301145     0.216220  Biso 1.000000     H
    H   1.0     0.062916     0.251608     0.140235  Biso 1.000000     H
    H   1.0     0.805909     0.938151     0.020877  Biso 1.000000     H
    H   1.0     0.676626     0.976620     0.096882  Biso 1.000000     H
    H   1.0     0.696782     0.100491     0.177889  Biso 1.000000     H
    H   1.0     0.301206     0.559889     0.716795  Biso 1.000000     H
    H   1.0     0.252304     0.439677     0.640123  Biso 1.000000     H
    H   1.0     0.936687     0.693348     0.520592  Biso 1.000000     H
    H   1.0     0.974700     0.821758     0.597006  Biso 1.000000     H
    H   1.0     0.098889     0.802231     0.678454  Biso 1.000000     H
    H   1.0     0.198464     0.939998     0.716557  Biso 1.000000     H
    H   1.0     0.247933     0.060623     0.640582  Biso 1.000000     H
    H   1.0     0.563149     0.806952     0.520589  Biso 1.000000     H
    H   1.0     0.524948     0.678312     0.596594  Biso 1.000000     H
    H   1.0     0.400488     0.697612     0.677819  Biso 1.000000     H
    H   1.0     0.441890     0.699108     0.283495  Biso 1.000000     H
    H   1.0     0.562622     0.748459     0.360214  Biso 1.000000     H
    H   1.0     0.305715     0.061597     0.478587  Biso 1.000000     H
    H   1.0     0.176855     0.023102     0.401939  Biso 1.000000     H
    H   1.0     0.197332     0.899508     0.320899  Biso 1.000000     H
    H   1.0     0.058393     0.800979     0.283347  Biso 1.000000     H
    H   1.0     0.937235     0.751398     0.359489  Biso 1.000000     H
    H   1.0     0.194036     0.438882     0.478843  Biso 1.000000     H
    H   1.0     0.323305     0.477583     0.402772  Biso 1.000000     H
    H   1.0     0.303144     0.601225     0.321752  Biso 1.000000     H
    H   1.0     0.698628     0.060122     0.783642  Biso 1.000000     H
    H   1.0     0.747891     0.939454     0.859510  Biso 1.000000     H
    H   1.0     0.064368     0.193042     0.979393  Biso 1.000000     H
    H   1.0     0.026563     0.321658     0.903405  Biso 1.000000     H
    H   1.0     0.901843     0.302468     0.822220  Biso 1.000000     H
    H   1.0     0.801573     0.440130     0.783578  Biso 1.000000     H
    H   1.0     0.752600     0.560568     0.859838  Biso 1.000000     H
    H   1.0     0.436076     0.306779     0.979100  Biso 1.000000     H
    H   1.0     0.474362     0.178009     0.903250  Biso 1.000000     H
    H   1.0     0.599239     0.197269     0.822327  Biso 1.000000     H
    H   1.0     0.442034     0.801025     0.783772  Biso 1.000000     H
    H   1.0     0.563203     0.751370     0.859840  Biso 1.000000     H
    H   1.0     0.305786     0.438295     0.978833  Biso 1.000000     H
    H   1.0     0.176451     0.477083     0.902870  Biso 1.000000     H
    H   1.0     0.196764     0.600942     0.822014  Biso 1.000000     H
    H   1.0     0.058528     0.698740     0.783751  Biso 1.000000     H
    H   1.0     0.937726     0.747611     0.860290  Biso 1.000000     H
    H   1.0     0.194271     0.062102     0.978800  Biso 1.000000     H
    H   1.0     0.323435     0.023716     0.902654  Biso 1.000000     H
    H   1.0     0.303315     0.899642     0.821830  Biso 1.000000     H
    H   1.0     0.698810     0.440008     0.283206  Biso 1.000000     H
    H   1.0     0.747640     0.560238     0.359886  Biso 1.000000     H
    H   1.0     0.063442     0.306760     0.479375  Biso 1.000000     H
    H   1.0     0.025451     0.178307     0.402996  Biso 1.000000     H
    H   1.0     0.901214     0.197748     0.321573  Biso 1.000000     H
    H   1.0     0.801537     0.059889     0.283359  Biso 1.000000     H
    H   1.0     0.752029     0.939278     0.359336  Biso 1.000000     H
    H   1.0     0.437021     0.193111     0.479433  Biso 1.000000     H
    H   1.0     0.475250     0.321738     0.403422  Biso 1.000000     H
    H   1.0     0.599644     0.302378     0.322157  Biso 1.000000     H
    H   1.0     0.558245     0.300786     0.716624  Biso 1.000000     H
    H   1.0     0.437470     0.251501     0.639916  Biso 1.000000     H
    H   1.0     0.694308     0.938472     0.521311  Biso 1.000000     H
    H   1.0     0.823255     0.976975     0.597880  Biso 1.000000     H
    H   1.0     0.802835     0.100523     0.678965  Biso 1.000000     H
    H   1.0     0.941713     0.198932     0.716416  Biso 1.000000     H
    H   1.0     0.062831     0.248619     0.640279  Biso 1.000000     H
    H   1.0     0.805966     0.561301     0.521233  Biso 1.000000     H
    H   1.0     0.676776     0.522568     0.597368  Biso 1.000000     H
    H   1.0     0.696984     0.398829     0.678304  Biso 1.000000     H
    H   1.0     0.301934     0.939635     0.216097  Biso 1.000000     H
    H   1.0     0.252698     0.060241     0.140155  Biso 1.000000     H
    H   1.0     0.935818     0.806779     0.020636  Biso 1.000000     H
    H   1.0     0.973992     0.678004     0.096403  Biso 1.000000     H
    H   1.0     0.098980     0.697121     0.177402  Biso 1.000000     H
    H   1.0     0.198778     0.559618     0.216497  Biso 1.000000     H
    H   1.0     0.247900     0.439043     0.140391  Biso 1.000000     H
    H   1.0     0.563826     0.693045     0.020637  Biso 1.000000     H
    H   1.0     0.525814     0.821723     0.096622  Biso 1.000000     H
    H   1.0     0.401368     0.802310     0.177873  Biso 1.000000     H
    B   1.0     0.751896     0.250070    -0.001218  Biso 1.000000     B
    B   1.0     0.249035     0.751997     0.499880  Biso 1.000000     B
    B   1.0     0.250903     0.749054    -0.000163  Biso 1.000000     B
    B   1.0     0.750968     0.248024     0.500132  Biso 1.000000     B
    B   1.0     0.525637     0.525708     0.267976  Biso 1.000000     B
    B   1.0     0.974385     0.974291     0.267968  Biso 1.000000     B
    B   1.0     0.974361     0.525725     0.767983  Biso 1.000000     B
    B   1.0     0.525649     0.974297     0.767985  Biso 1.000000     B
    B   1.0     0.474367     0.025725     0.232034  Biso 1.000000     B
    B   1.0     0.025651     0.474297     0.232028  Biso 1.000000     B
    B   1.0     0.025639     0.025707     0.732040  Biso 1.000000     B
    B   1.0     0.474384     0.474288     0.732041  Biso 1.000000     B
    C   1.0     0.569980     0.257535     0.185006  Biso 1.000000     C
    C   1.0     0.501375     0.285694     0.140879  Biso 1.000000     C
    C   1.0     0.686901     0.508966     0.058236  Biso 1.000000     C
    C   1.0     0.759161     0.486550     0.100459  Biso 1.000000     C
    C   1.0     0.747915     0.417626     0.145275  Biso 1.000000     C
    C   1.0     0.664030     0.370961     0.147158  Biso 1.000000     C
    C   1.0     0.593422     0.397646     0.103159  Biso 1.000000     C
    C   1.0     0.929965     0.242267     0.185082  Biso 1.000000     C
    C   1.0     0.998762     0.213945     0.141193  Biso 1.000000     C
    C   1.0     0.813424     0.990695     0.058045  Biso 1.000000     C
    C   1.0     0.741142     0.012941     0.100249  Biso 1.000000     C
    C   1.0     0.752278     0.081892     0.145138  Biso 1.000000     C
    C   1.0     0.836111     0.128646     0.147137  Biso 1.000000     C
    C   1.0     0.906820     0.101962     0.103253  Biso 1.000000     C
    C   1.0     0.242126     0.571346     0.685476  Biso 1.000000     C
    C   1.0     0.214157     0.503110     0.641208  Biso 1.000000     C
    C   1.0     0.989338     0.686079     0.557940  Biso 1.000000     C
    C   1.0     0.011356     0.757858     0.600407  Biso 1.000000     C
    C   1.0     0.080469     0.747072     0.645537  Biso 1.000000     C
    C   1.0     0.127764     0.664098     0.647479  Biso 1.000000     C
    C   1.0     0.101352     0.593917     0.603279  Biso 1.000000     C
    C   1.0     0.257628     0.928623     0.685345  Biso 1.000000     C
    C   1.0     0.285913     0.997107     0.641447  Biso 1.000000     C
    C   1.0     0.510464     0.814139     0.557883  Biso 1.000000     C
    C   1.0     0.488304     0.742212     0.600091  Biso 1.000000     C
    C   1.0     0.419073     0.752873     0.645102  Biso 1.000000     C
    C   1.0     0.371917     0.835906     0.647227  Biso 1.000000     C
    C   1.0     0.398526     0.906286     0.603330  Biso 1.000000     C
    C   1.0     0.430117     0.757917     0.314638  Biso 1.000000     C
    C   1.0     0.498626     0.786133     0.358928  Biso 1.000000     C
    C   1.0     0.313383     0.009168     0.441378  Biso 1.000000     C
    C   1.0     0.241353     0.986934     0.398818  Biso 1.000000     C
    C   1.0     0.252659     0.918134     0.353888  Biso 1.000000     C
    C   1.0     0.336358     0.871448     0.352221  Biso 1.000000     C
    C   1.0     0.406798     0.898096     0.396474  Biso 1.000000     C
    C   1.0     0.070098     0.742238     0.314530  Biso 1.000000     C
    C   1.0     0.001341     0.713893     0.358508  Biso 1.000000     C
    C   1.0     0.186518     0.491305     0.441652  Biso 1.000000     C
    C   1.0     0.258799     0.513722     0.399440  Biso 1.000000     C
    C   1.0     0.247663     0.582511     0.354520  Biso 1.000000     C
    C   1.0     0.163871     0.629002     0.352528  Biso 1.000000     C
    C   1.0     0.093174     0.602242     0.396457  Biso 1.000000     C
    C   1.0     0.757986     0.071453     0.814763  Biso 1.000000     C
    C   1.0     0.786133     0.002945     0.858609  Biso 1.000000     C
    C   1.0     0.011638     0.185833     0.942070  Biso 1.000000     C
    C   1.0     0.989701     0.257746     0.899851  Biso 1.000000     C
    C   1.0     0.920342     0.247124     0.854842  Biso 1.000000     C
    C   1.0     0.872855     0.164090     0.852701  Biso 1.000000     C
    C   1.0     0.899290     0.093708     0.896597  Biso 1.000000     C
    C   1.0     0.742468     0.428616     0.814848  Biso 1.000000     C
    C   1.0     0.714441     0.496995     0.858888  Biso 1.000000     C
    C   1.0     0.489035     0.313903     0.941989  Biso 1.000000     C
    C   1.0     0.511206     0.241937     0.899838  Biso 1.000000     C
    C   1.0     0.580688     0.252575     0.854998  Biso 1.000000     C
    C   1.0     0.628054     0.335674     0.852942  Biso 1.000000     C
    C   1.0     0.601540     0.406030     0.896863  Biso 1.000000     C
    C   1.0     0.430228     0.742200     0.814884  Biso 1.000000     C
    C   1.0     0.498991     0.713803     0.858813  Biso 1.000000     C
    C   1.0     0.313364     0.490808     0.941700  Biso 1.000000     C
    C   1.0     0.241071     0.513247     0.899525  Biso 1.000000     C
    C   1.0     0.252286     0.582189     0.854714  Biso 1.000000     C
    C   1.0     0.336213     0.628756     0.852729  Biso 1.000000     C
    C   1.0     0.406919     0.601939     0.896613  Biso 1.000000     C
    C   1.0     0.070328     0.757505     0.814984  Biso 1.000000     C
    C   1.0     0.001753     0.785477     0.859163  Biso 1.000000     C
    C   1.0     0.186809     0.009378     0.941761  Biso 1.000000     C
    C   1.0     0.259009     0.987210     0.899466  Biso 1.000000     C
    C   1.0     0.247891     0.918141     0.854672  Biso 1.000000     C
    C   1.0     0.164165     0.871181     0.852865  Biso 1.000000     C
    C   1.0     0.093605     0.897661     0.896926  Biso 1.000000     C
    C   1.0     0.757893     0.428577     0.314527  Biso 1.000000     C
    C   1.0     0.785825     0.496828     0.358796  Biso 1.000000     C
    C   1.0     0.010768     0.313992     0.442041  Biso 1.000000     C
    C   1.0     0.988765     0.242188     0.399591  Biso 1.000000     C
    C   1.0     0.919628     0.252927     0.354474  Biso 1.000000     C
    C   1.0     0.872302     0.335883     0.352525  Biso 1.000000     C
    C   1.0     0.898687     0.406084     0.396717  Biso 1.000000     C
    C   1.0     0.742394     0.071292     0.314585  Biso 1.000000     C
    C   1.0     0.714087     0.002817     0.358484  Biso 1.000000     C
    C   1.0     0.489676     0.185897     0.442120  Biso 1.000000     C
    C   1.0     0.511855     0.257818     0.399911  Biso 1.000000     C
    C   1.0     0.581056     0.247125     0.354880  Biso 1.000000     C
    C   1.0     0.628174     0.164070     0.352742  Biso 1.000000     C
    C   1.0     0.601540     0.093696     0.396637  Biso 1.000000     C
    C   1.0     0.570006     0.242012     0.685442  Biso 1.000000     C
    C   1.0     0.501467     0.213826     0.641164  Biso 1.000000     C
    C   1.0     0.686672     0.990881     0.558539  Biso 1.000000     C
    C   1.0     0.758748     0.013118     0.601054  Biso 1.000000     C
    C   1.0     0.747473     0.081890     0.646010  Biso 1.000000     C
    C   1.0     0.663755     0.128538     0.647756  Biso 1.000000     C
    C   1.0     0.593274     0.101904     0.603532  Biso 1.000000     C
    C   1.0     0.929998     0.257726     0.685289  Biso 1.000000     C
    C   1.0     0.998724     0.286120     0.641305  Biso 1.000000     C
    C   1.0     0.813509     0.508834     0.558390  Biso 1.000000     C
    C   1.0     0.741272     0.486400     0.600636  Biso 1.000000     C
    C   1.0     0.752438     0.417562     0.645515  Biso 1.000000     C
    C   1.0     0.836213     0.371033     0.647425  Biso 1.000000     C
    C   1.0     0.906868     0.397826     0.603473  Biso 1.000000     C
    C   1.0     0.242639     0.928256     0.184925  Biso 1.000000     C
    C   1.0     0.214482     0.996734     0.141057  Biso 1.000000     C
    C   1.0     0.988768     0.813890     0.057807  Biso 1.000000     C
    C   1.0     0.010908     0.741892     0.099902  Biso 1.000000     C
    C   1.0     0.080425     0.752465     0.144793  Biso 1.000000     C
    C   1.0     0.127889     0.835515     0.146913  Biso 1.000000     C
    C   1.0     0.101350     0.905925     0.103084  Biso 1.000000     C
    C   1.0     0.257978     0.571055     0.185302  Biso 1.000000     C
    C   1.0     0.286078     0.502607     0.141346  Biso 1.000000     C
    C   1.0     0.511130     0.685807     0.057930  Biso 1.000000     C
    C   1.0     0.489101     0.757735     0.100162  Biso 1.000000     C
    C   1.0     0.419857     0.747012     0.145176  Biso 1.000000     C
    C   1.0     0.372541     0.663887     0.147304  Biso 1.000000     C
    C   1.0     0.399012     0.593524     0.103362  Biso 1.000000     C
    N   1.0     0.650500     0.299143     0.189026  Biso 1.000000     N
    N   1.0     0.511609     0.354932     0.100241  Biso 1.000000     N
    N   1.0     0.606477     0.466917     0.059821  Biso 1.000000     N
    N   1.0     0.849497     0.200578     0.188998  Biso 1.000000     N
    N   1.0     0.988685     0.144598     0.100575  Biso 1.000000     N
    N   1.0     0.893818     0.032763     0.059778  Biso 1.000000     N
    N   1.0     0.200021     0.651042     0.689463  Biso 1.000000     N
    N   1.0     0.144615     0.512973     0.600348  Biso 1.000000     N
    N   1.0     0.031872     0.606488     0.559648  Biso 1.000000     N
    N   1.0     0.299626     0.848862     0.689158  Biso 1.000000     N
    N   1.0     0.355559     0.987409     0.600731  Biso 1.000000     N
    N   1.0     0.467983     0.893768     0.559731  Biso 1.000000     N
    N   1.0     0.349806     0.799564     0.310399  Biso 1.000000     N
    N   1.0     0.488436     0.855394     0.399578  Biso 1.000000     N
    N   1.0     0.393695     0.967216     0.439942  Biso 1.000000     N
    N   1.0     0.150533     0.700776     0.310621  Biso 1.000000     N
    N   1.0     0.011369     0.644685     0.399164  Biso 1.000000     N
    N   1.0     0.106148     0.533176     0.439945  Biso 1.000000     N
    N   1.0     0.800317     0.151186     0.810878  Biso 1.000000     N
    N   1.0     0.855963     0.012622     0.899269  Biso 1.000000     N
    N   1.0     0.968851     0.106208     0.940217  Biso 1.000000     N
    N   1.0     0.700353     0.348765     0.810996  Biso 1.000000     N
    N   1.0     0.644816     0.487154     0.899634  Biso 1.000000     N
    N   1.0     0.531833     0.393525     0.940298  Biso 1.000000     N
    N   1.0     0.349671     0.700666     0.810923  Biso 1.000000     N
    N   1.0     0.488830     0.644486     0.899379  Biso 1.000000     N
    N   1.0     0.393844     0.532764     0.940029  Biso 1.000000     N
    N   1.0     0.150698     0.799344     0.810934  Biso 1.000000     N
    N   1.0     0.011895     0.854748     0.899846  Biso 1.000000     N
    N   1.0     0.106561     0.967026     0.940268  Biso 1.000000     N
    N   1.0     0.800046     0.348907     0.310536  Biso 1.000000     N
    N   1.0     0.855384     0.487007     0.399646  Biso 1.000000     N
    N   1.0     0.968188     0.393559     0.440336  Biso 1.000000     N
    N   1.0     0.700446     0.151080     0.310796  Biso 1.000000     N
    N   1.0     0.644466     0.012551     0.399217  Biso 1.000000     N
    N   1.0     0.532107     0.106243     0.440253  Biso 1.000000     N
    N   1.0     0.650334     0.200384     0.689618  Biso 1.000000     N
    N   1.0     0.511630     0.144602     0.600477  Biso 1.000000     N
    N   1.0     0.606350     0.032811     0.560035  Biso 1.000000     N
    N   1.0     0.849580     0.299206     0.689276  Biso 1.000000     N
    N   1.0     0.988668     0.355382     0.600700  Biso 1.000000     N
    N   1.0     0.893866     0.466933     0.560027  Biso 1.000000     N
    N   1.0     0.200383     0.848474     0.188769  Biso 1.000000     N
    N   1.0     0.144657     0.987024     0.100400  Biso 1.000000     N
    N   1.0     0.031595     0.893496     0.059614  Biso 1.000000     N
    N   1.0     0.300159     0.650877     0.189179  Biso 1.000000     N
    N   1.0     0.355755     0.512397     0.100631  Biso 1.000000     N
    N   1.0     0.468519     0.606100     0.059772  Biso 1.000000     N
    F   1.0     0.749889     0.171446     0.958562  Biso 1.000000     F
    F   1.0     0.753907     0.328568     0.958535  Biso 1.000000     F
    F   1.0     0.672251     0.250044     0.038744  Biso 1.000000     F
    F   1.0     0.831618     0.250051     0.038736  Biso 1.000000     F
    F   1.0     0.327509     0.749792     0.458696  Biso 1.000000     F
    F   1.0     0.168222     0.750424     0.461192  Biso 1.000000     F
    F   1.0     0.250478     0.675121     0.541656  Biso 1.000000     F
    F   1.0     0.249753     0.832256     0.538501  Biso 1.000000     F
    F   1.0     0.249921     0.828779     0.038821  Biso 1.000000     F
    F   1.0     0.249821     0.671635     0.041302  Biso 1.000000     F
    F   1.0     0.331749     0.749955     0.961202  Biso 1.000000     F
    F   1.0     0.172441     0.746033     0.958620  Biso 1.000000     F
    F   1.0     0.672495     0.250231     0.541314  Biso 1.000000     F
    F   1.0     0.831782     0.249594     0.538817  Biso 1.000000     F
    F   1.0     0.749527     0.324900     0.458355  Biso 1.000000     F
    F   1.0     0.750249     0.167766     0.461506  Biso 1.000000     F
    F   1.0     0.430134     0.542706     0.275062  Biso 1.000000     F
    F   1.0     0.542695     0.430771     0.275056  Biso 1.000000     F
    F   1.0     0.574424     0.574334     0.316970  Biso 1.000000     F
    F   1.0     0.554690     0.554624     0.205158  Biso 1.000000     F
    F   1.0     0.069900     0.957311     0.275062  Biso 1.000000     F
    F   1.0     0.957319     0.069214     0.275070  Biso 1.000000     F
    F   1.0     0.925621     0.925714     0.316921  Biso 1.000000     F
    F   1.0     0.945304     0.945376     0.205118  Biso 1.000000     F
    F   1.0     0.957240     0.430751     0.775064  Biso 1.000000     F
    F   1.0     0.069907     0.542779     0.775086  Biso 1.000000     F
    F   1.0     0.925647     0.574297     0.816936  Biso 1.000000     F
    F   1.0     0.945315     0.554618     0.705165  Biso 1.000000     F
    F   1.0     0.542753     0.069252     0.775096  Biso 1.000000     F
    F   1.0     0.430099     0.957244     0.775068  Biso 1.000000     F
    F   1.0     0.574370     0.925746     0.816938  Biso 1.000000     F
    F   1.0     0.554671     0.945388     0.705169  Biso 1.000000     F
    F   1.0     0.569909     0.042778     0.224944  Biso 1.000000     F
    F   1.0     0.457256     0.930768     0.224918  Biso 1.000000     F
    F   1.0     0.425637     0.074274     0.183074  Biso 1.000000     F
    F   1.0     0.445335     0.054634     0.294842  Biso 1.000000     F
    F   1.0     0.930098     0.457241     0.224927  Biso 1.000000     F
    F   1.0     0.042769     0.569273     0.224945  Biso 1.000000     F
    F   1.0     0.074357     0.425723     0.183078  Biso 1.000000     F
    F   1.0     0.054689     0.445403     0.294847  Biso 1.000000     F
    F   1.0     0.042692     0.930783     0.724943  Biso 1.000000     F
    F   1.0     0.930127     0.042694     0.724941  Biso 1.000000     F
    F   1.0     0.074389     0.074301     0.683089  Biso 1.000000     F
    F   1.0     0.054710     0.054632     0.794890  Biso 1.000000     F
    F   1.0     0.457317     0.569223     0.724954  Biso 1.000000     F
    F   1.0     0.569888     0.457299     0.724959  Biso 1.000000     F
    F   1.0     0.425585     0.425677     0.683044  Biso 1.000000     F
    F   1.0     0.445324     0.445383     0.794858  Biso 1.000000     F
   Cu   1.0     0.500109     0.499894    -0.000045  Biso 1.000000    Cu
   Cu   1.0     0.000141    -0.000078    -0.000023  Biso 1.000000    Cu
   Cu   1.0     0.000012     0.500035     0.499990  Biso 1.000000    Cu
   Cu   1.0     0.500013     0.000001     0.499999  Biso 1.000000    Cu
   Cu   1.0     0.750120     0.249995     0.750253  Biso 1.000000    Cu
   Cu   1.0     0.250074     0.749905     0.249725  Biso 1.000000    Cu
   Cu   1.0     0.250100     0.750043     0.750088  Biso 1.000000    Cu
   Cu   1.0     0.750023     0.249905     0.249902  Biso 1.000000    Cu
