#======================================================================

# CRYSTAL DATA

#----------------------------------------------------------------------

data_VESTA_phase_1


_pd_phase_name                         MOF
_cell_length_a                         13.71600
_cell_length_b                         13.85100
_cell_length_c                         16.44800
_cell_angle_alpha                      90.00000
_cell_angle_beta                       90.00100
_cell_angle_gamma                      89.73600
_symmetry_space_group_name_H-M         "P 1"
_symmetry_Int_Tables_number            1

loop_
_symmetry_equiv_pos_as_xyz
   "x, y, z"

loop_
   _atom_site_label
   _atom_site_occupancy
   _atom_site_fract_x
   _atom_site_fract_y
   _atom_site_fract_z
   _atom_site_adp_type
   _atom_site_B_iso_or_equiv
   _atom_site_type_symbol
    H   1.0     0.204265     0.449115     0.250021  Biso 1.000000     H
    H   1.0     0.204299     0.949108     0.250024  Biso 1.000000     H
    H   1.0     0.704256     0.449116     0.250020  Biso 1.000000     H
    H   1.0     0.704281     0.949124     0.250022  Biso 1.000000     H
    H   1.0     0.446357     0.196582     0.250017  Biso 1.000000     H
    H   1.0     0.446427     0.696545     0.250021  Biso 1.000000     H
    H   1.0     0.946376     0.196564     0.250019  Biso 1.000000     H
    H   1.0     0.946438     0.696529     0.250024  Biso 1.000000     H
    H   1.0     0.295735     0.050913     0.750022  Biso 1.000000     H
    H   1.0     0.295769     0.550911     0.750022  Biso 1.000000     H
    H   1.0     0.795722     0.050924     0.750023  Biso 1.000000     H
    H   1.0     0.795757     0.550914     0.750023  Biso 1.000000     H
    H   1.0     0.053576     0.303511     0.750023  Biso 1.000000     H
    H   1.0     0.053679     0.803431     0.750023  Biso 1.000000     H
    H   1.0     0.553582     0.303497     0.750021  Biso 1.000000     H
    H   1.0     0.553719     0.803392     0.750021  Biso 1.000000     H
    C   1.0     0.111866     0.358633     0.323196  Biso 1.000000     C
    C   1.0     0.111857     0.858670     0.323199  Biso 1.000000     C
    C   1.0     0.611858     0.358633     0.323195  Biso 1.000000     C
    C   1.0     0.611873     0.858650     0.323197  Biso 1.000000     C
    C   1.0     0.037372     0.285962     0.325529  Biso 1.000000     C
    C   1.0     0.037455     0.785906     0.325532  Biso 1.000000     C
    C   1.0     0.537357     0.285969     0.325527  Biso 1.000000     C
    C   1.0     0.537406     0.785952     0.325530  Biso 1.000000     C
    C   1.0     0.388143     0.141390     0.823195  Biso 1.000000     C
    C   1.0     0.388178     0.641385     0.823195  Biso 1.000000     C
    C   1.0     0.888157     0.141374     0.823196  Biso 1.000000     C
    C   1.0     0.888158     0.641396     0.823195  Biso 1.000000     C
    C   1.0     0.462604     0.214093     0.825528  Biso 1.000000     C
    C   1.0     0.462677     0.714050     0.825529  Biso 1.000000     C
    C   1.0     0.962564     0.214132     0.825530  Biso 1.000000     C
    C   1.0     0.962660     0.714060     0.825530  Biso 1.000000     C
    C   1.0     0.388145     0.141380     0.676837  Biso 1.000000     C
    C   1.0     0.388183     0.641372     0.676836  Biso 1.000000     C
    C   1.0     0.888160     0.141364     0.676838  Biso 1.000000     C
    C   1.0     0.888167     0.641381     0.676837  Biso 1.000000     C
    C   1.0     0.462608     0.214085     0.674506  Biso 1.000000     C
    C   1.0     0.462683     0.714039     0.674507  Biso 1.000000     C
    C   1.0     0.962567     0.214124     0.674508  Biso 1.000000     C
    C   1.0     0.962657     0.714058     0.674508  Biso 1.000000     C
    C   1.0     0.111862     0.358636     0.176837  Biso 1.000000     C
    C   1.0     0.111853     0.858672     0.176841  Biso 1.000000     C
    C   1.0     0.611852     0.358639     0.176837  Biso 1.000000     C
    C   1.0     0.611867     0.858654     0.176839  Biso 1.000000     C
    C   1.0     0.037369     0.285963     0.174507  Biso 1.000000     C
    C   1.0     0.037451     0.785907     0.174510  Biso 1.000000     C
    C   1.0     0.537353     0.285971     0.174506  Biso 1.000000     C
    C   1.0     0.537404     0.785951     0.174509  Biso 1.000000     C
    C   1.0     0.147984     0.393956     0.250017  Biso 1.000000     C
    C   1.0     0.148042     0.893925     0.250020  Biso 1.000000     C
    C   1.0     0.647974     0.393958     0.250016  Biso 1.000000     C
    C   1.0     0.648009     0.893955     0.250018  Biso 1.000000     C
    C   1.0     0.502848     0.251737     0.250016  Biso 1.000000     C
    C   1.0     0.502883     0.751734     0.250020  Biso 1.000000     C
    C   1.0     0.000000     0.251727     0.250018  Biso 1.000000     C
    C   1.0     0.000000     0.751762     0.250022  Biso 1.000000     C
    C   1.0     0.352005     0.106083     0.750016  Biso 1.000000     C
    C   1.0     0.352053     0.606067     0.750016  Biso 1.000000     C
    C   1.0     0.851977     0.106109     0.750018  Biso 1.000000     C
    C   1.0     0.852038     0.606072     0.750017  Biso 1.000000     C
    C   1.0    -0.002840     0.248281     0.750019  Biso 1.000000     C
    C   1.0    -0.002813     0.748278     0.750019  Biso 1.000000     C
    C   1.0     0.497131     0.248304     0.750017  Biso 1.000000     C
    C   1.0     0.497219     0.748247     0.750018  Biso 1.000000     C
    O   1.0     0.233136     0.475954     0.399276  Biso 1.000000     O
    O   1.0     0.233152     0.975962     0.399279  Biso 1.000000     O
    O   1.0     0.733128     0.475954     0.399275  Biso 1.000000     O
    O   1.0     0.733141     0.975971     0.399279  Biso 1.000000     O
    O   1.0     0.195843     0.320262     0.462388  Biso 1.000000     O
    O   1.0     0.195855     0.820279     0.462400  Biso 1.000000     O
    O   1.0     0.695838     0.320261     0.462384  Biso 1.000000     O
    O   1.0     0.695850     0.820282     0.462394  Biso 1.000000     O
    O   1.0     0.070883     0.449372     0.458321  Biso 1.000000     O
    O   1.0     0.070892     0.949386     0.458317  Biso 1.000000     O
    O   1.0     0.570878     0.449370     0.458322  Biso 1.000000     O
    O   1.0     0.570887     0.949387     0.458319  Biso 1.000000     O
    O   1.0     0.503398     0.253355     0.395899  Biso 1.000000     O
    O   1.0     0.503418     0.753367     0.395902  Biso 1.000000     O
    O   1.0     0.000000     0.253354     0.395900  Biso 1.000000     O
    O   1.0     0.000000     0.753372     0.395903  Biso 1.000000     O
    O   1.0     0.266869     0.024073     0.899273  Biso 1.000000     O
    O   1.0     0.266887     0.524081     0.899271  Biso 1.000000     O
    O   1.0     0.766860     0.024081     0.899274  Biso 1.000000     O
    O   1.0     0.766879     0.524084     0.899274  Biso 1.000000     O
    O   1.0     0.304166     0.179758     0.962392  Biso 1.000000     O
    O   1.0     0.304177     0.679776     0.962376  Biso 1.000000     O
    O   1.0     0.804162     0.179760     0.962397  Biso 1.000000     O
    O   1.0     0.804172     0.679775     0.962382  Biso 1.000000     O
    O   1.0     0.429125     0.050650     0.958316  Biso 1.000000     O
    O   1.0     0.429135     0.550664     0.958328  Biso 1.000000     O
    O   1.0     0.929120     0.050651     0.958315  Biso 1.000000     O
    O   1.0     0.929129     0.550664     0.958326  Biso 1.000000     O
    O   1.0    -0.003394     0.246673     0.895901  Biso 1.000000     O
    O   1.0    -0.003376     0.746678     0.895902  Biso 1.000000     O
    O   1.0     0.496596     0.246678     0.895900  Biso 1.000000     O
    O   1.0     0.496635     0.746668     0.895900  Biso 1.000000     O
    O   1.0     0.266879     0.024056     0.600741  Biso 1.000000     O
    O   1.0     0.266901     0.524058     0.600743  Biso 1.000000     O
    O   1.0     0.766871     0.024063     0.600742  Biso 1.000000     O
    O   1.0     0.766891     0.524063     0.600742  Biso 1.000000     O
    O   1.0     0.304162     0.179753     0.537640  Biso 1.000000     O
    O   1.0     0.304175     0.679767     0.537657  Biso 1.000000     O
    O   1.0     0.804158     0.179756     0.537638  Biso 1.000000     O
    O   1.0     0.804169     0.679768     0.537651  Biso 1.000000     O
    O   1.0     0.429128     0.050652     0.541700  Biso 1.000000     O
    O   1.0     0.429141     0.550664     0.541687  Biso 1.000000     O
    O   1.0     0.929124     0.050656     0.541703  Biso 1.000000     O
    O   1.0     0.929134     0.550667     0.541692  Biso 1.000000     O
    O   1.0    -0.003394     0.246667     0.604135  Biso 1.000000     O
    O   1.0    -0.003371     0.746666     0.604135  Biso 1.000000     O
    O   1.0     0.496596     0.246670     0.604134  Biso 1.000000     O
    O   1.0     0.496638     0.746656     0.604134  Biso 1.000000     O
    O   1.0     0.233121     0.475964     0.100741  Biso 1.000000     O
    O   1.0     0.233137     0.975971     0.100741  Biso 1.000000     O
    O   1.0     0.733113     0.475967     0.100742  Biso 1.000000     O
    O   1.0     0.733128     0.975978     0.100741  Biso 1.000000     O
    O   1.0     0.195836     0.320263     0.037645  Biso 1.000000     O
    O   1.0     0.195848     0.820278     0.037639  Biso 1.000000     O
    O   1.0     0.695832     0.320264     0.037648  Biso 1.000000     O
    O   1.0     0.695843     0.820281     0.037642  Biso 1.000000     O
    O   1.0     0.070873     0.449364     0.041698  Biso 1.000000     O
    O   1.0     0.070881     0.949375     0.041705  Biso 1.000000     O
    O   1.0     0.570867     0.449364     0.041696  Biso 1.000000     O
    O   1.0     0.570876     0.949379     0.041702  Biso 1.000000     O
    O   1.0     0.503393     0.253356     0.104133  Biso 1.000000     O
    O   1.0     0.503413     0.753365     0.104136  Biso 1.000000     O
    O   1.0     0.000000     0.253352     0.104135  Biso 1.000000     O
    O   1.0     0.000000     0.753369     0.104138  Biso 1.000000     O
    S   1.0     0.155829     0.404034     0.415096  Biso 1.000000     S
    S   1.0     0.155845     0.904045     0.415101  Biso 1.000000     S
    S   1.0     0.655823     0.404032     0.415095  Biso 1.000000     S
    S   1.0     0.655837     0.904049     0.415098  Biso 1.000000     S
    S   1.0     0.344176     0.095992     0.915094  Biso 1.000000     S
    S   1.0     0.344194     0.596001     0.915093  Biso 1.000000     S
    S   1.0     0.844171     0.095996     0.915096  Biso 1.000000     S
    S   1.0     0.844187     0.596003     0.915094  Biso 1.000000     S
    S   1.0     0.344181     0.095983     0.584931  Biso 1.000000     S
    S   1.0     0.344202     0.595988     0.584932  Biso 1.000000     S
    S   1.0     0.844175     0.095988     0.584931  Biso 1.000000     S
    S   1.0     0.844193     0.595992     0.584932  Biso 1.000000     S
    S   1.0     0.155819     0.404034     0.084932  Biso 1.000000     S
    S   1.0     0.155833     0.904045     0.084933  Biso 1.000000     S
    S   1.0     0.655812     0.404035     0.084932  Biso 1.000000     S
    S   1.0     0.655826     0.904049     0.084933  Biso 1.000000     S
   Ba   1.0     0.392707     0.357842     0.499380  Biso 1.000000    Ba
   Ba   1.0     0.392735     0.857842     0.499393  Biso 1.000000    Ba
   Ba   1.0     0.892705     0.357844     0.499377  Biso 1.000000    Ba
   Ba   1.0     0.892729     0.857848     0.499386  Biso 1.000000    Ba
   Ba   1.0     0.107283     0.142176    -0.000617  Biso 1.000000    Ba
   Ba   1.0     0.107308     0.642182    -0.000612  Biso 1.000000    Ba
   Ba   1.0     0.607279     0.142179    -0.000615  Biso 1.000000    Ba
   Ba   1.0     0.607306     0.642181    -0.000605  Biso 1.000000    Ba
   Ba   1.0     0.107291     0.142181     0.500665  Biso 1.000000    Ba
   Ba   1.0     0.107318     0.642184     0.500661  Biso 1.000000    Ba
   Ba   1.0     0.607288     0.142182     0.500661  Biso 1.000000    Ba
   Ba   1.0     0.607317     0.642182     0.500650  Biso 1.000000    Ba
   Ba   1.0     0.392707     0.357851     0.000000  Biso 1.000000    Ba
   Ba   1.0     0.392733     0.857851     0.000000  Biso 1.000000    Ba
   Ba   1.0     0.892705     0.357852     0.000000  Biso 1.000000    Ba
   Ba   1.0     0.892728     0.857854     0.000000  Biso 1.000000    Ba
