#======================================================================

# CRYSTAL DATA

#----------------------------------------------------------------------

data_VESTA_phase_1


_pd_phase_name                         MOF
_cell_length_a                         19.21000
_cell_length_b                         13.44400
_cell_length_c                         18.09800
_cell_angle_alpha                      106.72500
_cell_angle_beta                       89.98400
_cell_angle_gamma                      110.87900
_symmetry_space_group_name_H-M         "P 1"
_symmetry_Int_Tables_number            1

loop_
_symmetry_equiv_pos_as_xyz
   "x, y, z"

loop_
   _atom_site_label
   _atom_site_occupancy
   _atom_site_fract_x
   _atom_site_fract_y
   _atom_site_fract_z
   _atom_site_adp_type
   _atom_site_B_iso_or_equiv
   _atom_site_type_symbol
    H   1.0     0.210959     0.001046     0.280302  Biso 1.000000     H
    H   1.0     0.710971     0.001047     0.280302  Biso 1.000000     H
    H   1.0     0.341246     0.188080     0.321338  Biso 1.000000     H
    H   1.0     0.841258     0.188081     0.321339  Biso 1.000000     H
    H   1.0     0.303052     0.356678     0.307889  Biso 1.000000     H
    H   1.0     0.803064     0.356679     0.307889  Biso 1.000000     H
    H   1.0     0.048292     0.391945     0.220425  Biso 1.000000     H
    H   1.0     0.548305     0.391946     0.220424  Biso 1.000000     H
    H   1.0     0.402463     0.254565     0.186244  Biso 1.000000     H
    H   1.0     0.902475     0.254564     0.186245  Biso 1.000000     H
    H   1.0     0.396634     0.055683     0.201309  Biso 1.000000     H
    H   1.0     0.896647     0.055682     0.201310  Biso 1.000000     H
    H   1.0     0.249137     0.369515     0.170071  Biso 1.000000     H
    H   1.0     0.749149     0.369516     0.170071  Biso 1.000000     H
    H   1.0     0.319011     0.569754     0.182758  Biso 1.000000     H
    H   1.0     0.819023     0.569755     0.182758  Biso 1.000000     H
    H   1.0     0.205621     0.665444     0.380639  Biso 1.000000     H
    H   1.0     0.705633     0.665445     0.380639  Biso 1.000000     H
    H   1.0     0.132688     0.464990     0.364583  Biso 1.000000     H
    H   1.0     0.632700     0.464991     0.364582  Biso 1.000000     H
    H   1.0     0.416429     0.738281     0.260967  Biso 1.000000     H
    H   1.0     0.916442     0.738281     0.260967  Biso 1.000000     H
    H   1.0     0.347542     0.012497     0.329100  Biso 1.000000     H
    H   1.0     0.847555     0.012498     0.329102  Biso 1.000000     H
    H   1.0     0.226825     0.820528     0.327800  Biso 1.000000     H
    H   1.0     0.726838     0.820530     0.327800  Biso 1.000000     H
    H   1.0     0.088796     0.925751     0.411025  Biso 1.000000     H
    H   1.0     0.588808     0.925752     0.411025  Biso 1.000000     H
    H   1.0     0.079784     0.720525     0.416860  Biso 1.000000     H
    H   1.0     0.579797     0.720526     0.416859  Biso 1.000000     H
    H   1.0     0.047630     0.586030     0.267879  Biso 1.000000     H
    H   1.0     0.547642     0.586032     0.267879  Biso 1.000000     H
    H   1.0     0.509969     0.645879    -0.009549  Biso 1.000000     H
    H   1.0     0.000000     0.645877    -0.009548  Biso 1.000000     H
    H   1.0     0.478911     0.802426     0.946073  Biso 1.000000     H
    H   1.0     0.978923     0.802424     0.946073  Biso 1.000000     H
    H   1.0     0.483409     0.964507     0.080392  Biso 1.000000     H
    H   1.0     0.983422     0.964506     0.080392  Biso 1.000000     H
    H   1.0     0.414691     0.524897     0.070835  Biso 1.000000     H
    H   1.0     0.914703     0.524896     0.070836  Biso 1.000000     H
    H   1.0     0.408163     0.331823     0.005846  Biso 1.000000     H
    H   1.0     0.908175     0.331822     0.005847  Biso 1.000000     H
    H   1.0     0.140347     0.431030     0.089820  Biso 1.000000     H
    H   1.0     0.640360     0.431032     0.089820  Biso 1.000000     H
    H   1.0     0.145067     0.621851     0.158128  Biso 1.000000     H
    H   1.0     0.645080     0.621853     0.158127  Biso 1.000000     H
    H   1.0     0.449156     0.224224     0.899391  Biso 1.000000     H
    H   1.0     0.949168     0.224223     0.899392  Biso 1.000000     H
    H   1.0     0.059634     0.033222     0.958948  Biso 1.000000     H
    H   1.0     0.559646     0.033223     0.958947  Biso 1.000000     H
    H   1.0     0.091088     0.229573     0.081026  Biso 1.000000     H
    H   1.0     0.591101     0.229575     0.081026  Biso 1.000000     H
    H   1.0     0.289281     0.000706     0.780687  Biso 1.000000     H
    H   1.0     0.789293     0.000705     0.780687  Biso 1.000000     H
    H   1.0     0.252820     0.188212     0.821559  Biso 1.000000     H
    H   1.0     0.752833     0.188212     0.821559  Biso 1.000000     H
    H   1.0     0.375430     0.356248     0.807948  Biso 1.000000     H
    H   1.0     0.875443     0.356247     0.807948  Biso 1.000000     H
    H   1.0     0.147297     0.389186     0.719306  Biso 1.000000     H
    H   1.0     0.647309     0.389186     0.719305  Biso 1.000000     H
    H   1.0     0.223750     0.250664     0.684521  Biso 1.000000     H
    H   1.0     0.723762     0.250665     0.684520  Biso 1.000000     H
    H   1.0     0.130041     0.052443     0.700207  Biso 1.000000     H
    H   1.0     0.630053     0.052444     0.700207  Biso 1.000000     H
    H   1.0     0.435061     0.368291     0.670358  Biso 1.000000     H
    H   1.0     0.935074     0.368290     0.670357  Biso 1.000000     H
    H   1.0     0.465284     0.568537     0.682987  Biso 1.000000     H
    H   1.0     0.965297     0.568536     0.682986  Biso 1.000000     H
    H   1.0     0.127673     0.663870     0.879596  Biso 1.000000     H
    H   1.0     0.627686     0.663870     0.879596  Biso 1.000000     H
    H   1.0     0.100414     0.463380     0.863510  Biso 1.000000     H
    H   1.0     0.600427     0.463381     0.863509  Biso 1.000000     H
    H   1.0     0.452474     0.737079     0.761297  Biso 1.000000     H
    H   1.0     0.952486     0.737077     0.761297  Biso 1.000000     H
    H   1.0     0.158041     0.011376     0.829775  Biso 1.000000     H
    H   1.0     0.658053     0.011377     0.829775  Biso 1.000000     H
    H   1.0     0.183179     0.819203     0.827466  Biso 1.000000     H
    H   1.0     0.683192     0.819203     0.827466  Biso 1.000000     H
    H   1.0     0.373903     0.924358     0.911542  Biso 1.000000     H
    H   1.0     0.873915     0.924356     0.911542  Biso 1.000000     H
    H   1.0     0.280387     0.719200     0.917324  Biso 1.000000     H
    H   1.0     0.780399     0.719198     0.917324  Biso 1.000000     H
    H   1.0     0.245119     0.584939     0.768264  Biso 1.000000     H
    H   1.0     0.745131     0.584939     0.768263  Biso 1.000000     H
    H   1.0     0.312220     0.645009     0.490841  Biso 1.000000     H
    H   1.0     0.812231     0.645009     0.490841  Biso 1.000000     H
    H   1.0     0.420971     0.801869     0.446337  Biso 1.000000     H
    H   1.0     0.920982     0.801869     0.446337  Biso 1.000000     H
    H   1.0     0.497571     0.963781     0.580586  Biso 1.000000     H
    H   1.0     0.997583     0.963780     0.580586  Biso 1.000000     H
    H   1.0     0.347132     0.523506     0.571095  Biso 1.000000     H
    H   1.0     0.847143     0.523505     0.571095  Biso 1.000000     H
    H   1.0     0.256996     0.330752     0.505828  Biso 1.000000     H
    H   1.0     0.757007     0.330752     0.505828  Biso 1.000000     H
    H   1.0     0.074717     0.430998     0.590067  Biso 1.000000     H
    H   1.0     0.574728     0.430999     0.590067  Biso 1.000000     H
    H   1.0     0.165508     0.621467     0.658658  Biso 1.000000     H
    H   1.0     0.665519     0.621467     0.658658  Biso 1.000000     H
    H   1.0     0.162185     0.224931     0.398920  Biso 1.000000     H
    H   1.0     0.662196     0.224931     0.398919  Biso 1.000000     H
    H   1.0     0.456832     0.032763     0.458555  Biso 1.000000     H
    H   1.0     0.956846     0.032763     0.458555  Biso 1.000000     H
    H   1.0     0.023330     0.228555     0.581013  Biso 1.000000     H
    H   1.0     0.523341     0.228556     0.581013  Biso 1.000000     H
    C   1.0     0.218822     0.085790     0.281525  Biso 1.000000     C
    C   1.0     0.718834     0.085790     0.281525  Biso 1.000000     C
    C   1.0     0.285827     0.182956     0.303355  Biso 1.000000     C
    C   1.0     0.785838     0.182957     0.303355  Biso 1.000000     C
    C   1.0     0.266367     0.269662     0.295639  Biso 1.000000     C
    C   1.0     0.766379     0.269663     0.295639  Biso 1.000000     C
    C   1.0     0.187442     0.222714     0.269132  Biso 1.000000     C
    C   1.0     0.687454     0.222715     0.269132  Biso 1.000000     C
    C   1.0     0.143296     0.282588     0.257549  Biso 1.000000     C
    C   1.0     0.643308     0.282589     0.257549  Biso 1.000000     C
    C   1.0     0.064853     0.243151     0.239342  Biso 1.000000     C
    C   1.0     0.564865     0.243152     0.239341  Biso 1.000000     C
    C   1.0     0.024045     0.306185     0.221342  Biso 1.000000     C
    C   1.0     0.524057     0.306186     0.221341  Biso 1.000000     C
    C   1.0     0.449469     0.235625     0.202825  Biso 1.000000     C
    C   1.0     0.949482     0.235625     0.202826  Biso 1.000000     C
    C   1.0     0.446086     0.131681     0.210517  Biso 1.000000     C
    C   1.0     0.946099     0.131680     0.210517  Biso 1.000000     C
    C   1.0     0.185531     0.403223     0.265991  Biso 1.000000     C
    C   1.0     0.685543     0.403224     0.265991  Biso 1.000000     C
    C   1.0     0.239143     0.434447     0.215858  Biso 1.000000     C
    C   1.0     0.739155     0.434448     0.215858  Biso 1.000000     C
    C   1.0     0.278947     0.546684     0.223291  Biso 1.000000     C
    C   1.0     0.778959     0.546685     0.223291  Biso 1.000000     C
    C   1.0     0.266726     0.629996     0.282685  Biso 1.000000     C
    C   1.0     0.766738     0.629997     0.282686  Biso 1.000000     C
    C   1.0     0.214090     0.600527     0.333671  Biso 1.000000     C
    C   1.0     0.714102     0.600527     0.333671  Biso 1.000000     C
    C   1.0     0.173503     0.487967     0.324655  Biso 1.000000     C
    C   1.0     0.673515     0.487968     0.324655  Biso 1.000000     C
    C   1.0     0.382155     0.788227     0.278016  Biso 1.000000     C
    C   1.0     0.882167     0.788228     0.278017  Biso 1.000000     C
    C   1.0     0.344132     0.926771     0.314555  Biso 1.000000     C
    C   1.0     0.844145     0.926772     0.314556  Biso 1.000000     C
    C   1.0     0.283985     0.833333     0.315078  Biso 1.000000     C
    C   1.0     0.783998     0.833334     0.315079  Biso 1.000000     C
    C   1.0     0.077466     0.849781     0.362687  Biso 1.000000     C
    C   1.0     0.577478     0.849782     0.362687  Biso 1.000000     C
    C   1.0     0.073073     0.743154     0.365053  Biso 1.000000     C
    C   1.0     0.573085     0.743155     0.365052  Biso 1.000000     C
    C   1.0     0.056599     0.674297     0.288489  Biso 1.000000     C
    C   1.0     0.556612     0.674298     0.288489  Biso 1.000000     C
    C   1.0     0.051324     0.741164     0.241128  Biso 1.000000     C
    C   1.0     0.551336     0.741165     0.241127  Biso 1.000000     C
    C   1.0     0.033197     0.702817     0.159284  Biso 1.000000     C
    C   1.0     0.533210     0.702818     0.159283  Biso 1.000000     C
    C   1.0     0.016499     0.759598     0.111592  Biso 1.000000     C
    C   1.0     0.516512     0.759600     0.111592  Biso 1.000000     C
    C   1.0     0.505645     0.722148     0.027839  Biso 1.000000     C
    C   1.0     0.000000     0.722146     0.027839  Biso 1.000000     C
    C   1.0     0.490566     0.802768     0.004922  Biso 1.000000     C
    C   1.0     0.990578     0.802766     0.004923  Biso 1.000000     C
    C   1.0     0.492545     0.887368     0.074693  Biso 1.000000     C
    C   1.0     0.992557     0.887367     0.074693  Biso 1.000000     C
    C   1.0     0.030237     0.587348     0.119227  Biso 1.000000     C
    C   1.0     0.530250     0.587349     0.119227  Biso 1.000000     C
    C   1.0     0.464138     0.504178     0.075255  Biso 1.000000     C
    C   1.0     0.964149     0.504176     0.075256  Biso 1.000000     C
    C   1.0     0.460442     0.395876     0.038217  Biso 1.000000     C
    C   1.0     0.960454     0.395875     0.038217  Biso 1.000000     C
    C   1.0     0.023994     0.369238     0.043298  Biso 1.000000     C
    C   1.0     0.524006     0.369240     0.043297  Biso 1.000000     C
    C   1.0     0.090540     0.451063     0.086377  Biso 1.000000     C
    C   1.0     0.590553     0.451065     0.086376  Biso 1.000000     C
    C   1.0     0.093118     0.558523     0.124538  Biso 1.000000     C
    C   1.0     0.593131     0.558524     0.124538  Biso 1.000000     C
    C   1.0     0.482085     0.195939     0.931147  Biso 1.000000     C
    C   1.0     0.982097     0.195938     0.931148  Biso 1.000000     C
    C   1.0     0.041610     0.102493     0.964177  Biso 1.000000     C
    C   1.0     0.541623     0.102495     0.964177  Biso 1.000000     C
    C   1.0     0.059218     0.200002     0.024504  Biso 1.000000     C
    C   1.0     0.559230     0.200004     0.024504  Biso 1.000000     C
    C   1.0     0.323860     0.085321     0.781783  Biso 1.000000     C
    C   1.0     0.823873     0.085320     0.781784  Biso 1.000000     C
    C   1.0     0.305612     0.182750     0.803553  Biso 1.000000     C
    C   1.0     0.805624     0.182750     0.803553  Biso 1.000000     C
    C   1.0     0.368475     0.269141     0.795709  Biso 1.000000     C
    C   1.0     0.868487     0.269141     0.795709  Biso 1.000000     C
    C   1.0     0.423768     0.221734     0.769147  Biso 1.000000     C
    C   1.0     0.923781     0.221733     0.769147  Biso 1.000000     C
    C   1.0    -0.002177     0.281151     0.757384  Biso 1.000000     C
    C   1.0     0.497835     0.281152     0.757384  Biso 1.000000     C
    C   1.0     0.056368     0.241200     0.739069  Biso 1.000000     C
    C   1.0     0.556381     0.241201     0.739069  Biso 1.000000     C
    C   1.0     0.128552     0.303537     0.720490  Biso 1.000000     C
    C   1.0     0.628565     0.303538     0.720489  Biso 1.000000     C
    C   1.0     0.167489     0.232359     0.701608  Biso 1.000000     C
    C   1.0     0.667501     0.232360     0.701607  Biso 1.000000     C
    C   1.0     0.118858     0.128751     0.709650  Biso 1.000000     C
    C   1.0     0.618870     0.128752     0.709650  Biso 1.000000     C
    C   1.0     0.016030     0.401775     0.765652  Biso 1.000000     C
    C   1.0     0.516042     0.401775     0.765652  Biso 1.000000     C
    C   1.0     0.477754     0.433149     0.715863  Biso 1.000000     C
    C   1.0     0.977767     0.433148     0.715863  Biso 1.000000     C
    C   1.0    -0.005944     0.545399     0.723263  Biso 1.000000     C
    C   1.0     0.494068     0.545400     0.723263  Biso 1.000000     C
    C   1.0     0.048220     0.628633     0.782325  Biso 1.000000     C
    C   1.0     0.548233     0.628634     0.782326  Biso 1.000000     C
    C   1.0     0.086502     0.599032     0.832890  Biso 1.000000     C
    C   1.0     0.586514     0.599032     0.832890  Biso 1.000000     C
    C   1.0     0.070823     0.486440     0.823867  Biso 1.000000     C
    C   1.0     0.570835     0.486440     0.823866  Biso 1.000000     C
    C   1.0     0.011646     0.787027     0.778304  Biso 1.000000     C
    C   1.0     0.511659     0.787028     0.778305  Biso 1.000000     C
    C   1.0     0.118727     0.925603     0.815027  Biso 1.000000     C
    C   1.0     0.618740     0.925604     0.815027  Biso 1.000000     C
    C   1.0     0.132363     0.832032     0.814988  Biso 1.000000     C
    C   1.0     0.632375     0.832033     0.814988  Biso 1.000000     C
    C   1.0     0.347222     0.848470     0.863179  Biso 1.000000     C
    C   1.0     0.847235     0.848469     0.863179  Biso 1.000000     C
    C   1.0     0.298335     0.741879     0.865515  Biso 1.000000     C
    C   1.0     0.798347     0.741878     0.865515  Biso 1.000000     C
    C   1.0     0.280306     0.673140     0.788923  Biso 1.000000     C
    C   1.0     0.780318     0.673139     0.788923  Biso 1.000000     C
    C   1.0     0.318934     0.740034     0.741570  Biso 1.000000     C
    C   1.0     0.818946     0.740034     0.741570  Biso 1.000000     C
    C   1.0     0.317764     0.701761     0.659697  Biso 1.000000     C
    C   1.0     0.817776     0.701761     0.659697  Biso 1.000000     C
    C   1.0     0.362693     0.758531     0.611945  Biso 1.000000     C
    C   1.0     0.862705     0.758530     0.611945  Biso 1.000000     C
    C   1.0     0.354623     0.721257     0.528182  Biso 1.000000     C
    C   1.0     0.854635     0.721256     0.528182  Biso 1.000000     C
    C   1.0     0.409709     0.802042     0.505194  Biso 1.000000     C
    C   1.0     0.909721     0.802042     0.505194  Biso 1.000000     C
    C   1.0     0.450075     0.886539     0.574935  Biso 1.000000     C
    C   1.0     0.950087     0.886539     0.574935  Biso 1.000000     C
    C   1.0     0.262935     0.586427     0.619621  Biso 1.000000     C
    C   1.0     0.762946     0.586427     0.619621  Biso 1.000000     C
    C   1.0     0.287374     0.503084     0.575542  Biso 1.000000     C
    C   1.0     0.787385     0.503083     0.575541  Biso 1.000000     C
    C   1.0     0.236861     0.394977     0.538348  Biso 1.000000     C
    C   1.0     0.736872     0.394977     0.538347  Biso 1.000000     C
    C   1.0     0.160039     0.368764     0.543390  Biso 1.000000     C
    C   1.0     0.660050     0.368765     0.543389  Biso 1.000000     C
    C   1.0     0.134496     0.450734     0.586637  Biso 1.000000     C
    C   1.0     0.634507     0.450734     0.586637  Biso 1.000000     C
    C   1.0     0.185704     0.557986     0.624958  Biso 1.000000     C
    C   1.0     0.685715     0.557986     0.624958  Biso 1.000000     C
    C   1.0     0.115252     0.196281     0.430730  Biso 1.000000     C
    C   1.0     0.615263     0.196281     0.430729  Biso 1.000000     C
    C   1.0     0.009305     0.102222     0.463801  Biso 1.000000     C
    C   1.0     0.509316     0.102223     0.463801  Biso 1.000000     C
    C   1.0     0.040357     0.199412     0.524348  Biso 1.000000     C
    C   1.0     0.540368     0.199412     0.524348  Biso 1.000000     C
    N   1.0     0.160225     0.108469     0.261341  Biso 1.000000     N
    N   1.0     0.660237     0.108469     0.261341  Biso 1.000000     N
    N   1.0     0.013926     0.134917     0.232080  Biso 1.000000     N
    N   1.0     0.513938     0.134918     0.232079  Biso 1.000000     N
    N   1.0     0.308678     0.744654     0.291319  Biso 1.000000     N
    N   1.0     0.808690     0.744655     0.291320  Biso 1.000000     N
    N   1.0     0.404984     0.897883     0.291564  Biso 1.000000     N
    N   1.0     0.904997     0.897883     0.291565  Biso 1.000000     N
    N   1.0     0.064567     0.849672     0.289530  Biso 1.000000     N
    N   1.0     0.564580     0.849673     0.289530  Biso 1.000000     N
    N   1.0     0.007995     0.862942     0.138022  Biso 1.000000     N
    N   1.0     0.508007     0.862943     0.138022  Biso 1.000000     N
    N   1.0     0.020893     0.259703     0.003000  Biso 1.000000     N
    N   1.0     0.520906     0.259705     0.002999  Biso 1.000000     N
    N   1.0     0.493730     0.100976     0.906119  Biso 1.000000     N
    N   1.0     0.993743     0.100974     0.906119  Biso 1.000000     N
    N   1.0     0.393724     0.107539     0.761474  Biso 1.000000     N
    N   1.0     0.893736     0.107539     0.761474  Biso 1.000000     N
    N   1.0     0.052945     0.132803     0.731836  Biso 1.000000     N
    N   1.0     0.552958     0.132804     0.731835  Biso 1.000000     N
    N   1.0     0.063482     0.743332     0.791092  Biso 1.000000     N
    N   1.0     0.563494     0.743333     0.791092  Biso 1.000000     N
    N   1.0     0.043429     0.896774     0.792274  Biso 1.000000     N
    N   1.0     0.543441     0.896775     0.792274  Biso 1.000000     N
    N   1.0     0.359998     0.848446     0.790013  Biso 1.000000     N
    N   1.0     0.860010     0.848445     0.790013  Biso 1.000000     N
    N   1.0     0.422753     0.861861     0.638314  Biso 1.000000     N
    N   1.0     0.922765     0.861860     0.638314  Biso 1.000000     N
    N   1.0     0.108349     0.259478     0.502801  Biso 1.000000     N
    N   1.0     0.608360     0.259478     0.502801  Biso 1.000000     N
    N   1.0     0.056269     0.101295     0.405568  Biso 1.000000     N
    N   1.0     0.556280     0.101296     0.405567  Biso 1.000000     N
   Cd   1.0     0.036353     0.991660     0.262503  Biso 1.000000    Cd
   Cd   1.0     0.536364     0.991661     0.262502  Biso 1.000000    Cd
   Cd   1.0     0.458940     0.990435     0.762901  Biso 1.000000    Cd
   Cd   1.0     0.958952     0.990434     0.762901  Biso 1.000000    Cd
