#======================================================================

# CRYSTAL DATA

#----------------------------------------------------------------------

data_VESTA_phase_1


_pd_phase_name                         MOF
_cell_length_a                         15.11100
_cell_length_b                         15.05200
_cell_length_c                         15.12800
_cell_angle_alpha                      68.97200
_cell_angle_beta                       73.50700
_cell_angle_gamma                      110.91800
_symmetry_space_group_name_H-M         "P 1"
_symmetry_Int_Tables_number            1

loop_
_symmetry_equiv_pos_as_xyz
   "x, y, z"

loop_
   _atom_site_label
   _atom_site_occupancy
   _atom_site_fract_x
   _atom_site_fract_y
   _atom_site_fract_z
   _atom_site_adp_type
   _atom_site_B_iso_or_equiv
   _atom_site_type_symbol
    H   1.0     0.350185     0.281631     0.114806  Biso 1.000000     H
    H   1.0     0.366006     0.985409     0.250047  Biso 1.000000     H
    H   1.0     0.530128     0.257881     0.289517  Biso 1.000000     H
    H   1.0     0.222930     0.921156     0.219347  Biso 1.000000     H
    H   1.0     0.346664    -0.006134     0.098481  Biso 1.000000     H
    H   1.0     0.227232     0.981269     0.090705  Biso 1.000000     H
    H   1.0     0.464404     0.363450     0.187454  Biso 1.000000     H
    H   1.0     0.647713     0.181383     0.289402  Biso 1.000000     H
    H   1.0     0.617966     0.849981     0.486556  Biso 1.000000     H
    H   1.0     0.104639     0.219035     0.930102  Biso 1.000000     H
    H   1.0     0.265887     0.514185     0.618513  Biso 1.000000     H
    H   1.0     0.953186     0.243774     0.726951  Biso 1.000000     H
    H   1.0     0.361931     0.578260     0.696391  Biso 1.000000     H
    H   1.0     0.408684     0.503563     0.646730  Biso 1.000000     H
    H   1.0     0.429671     0.517016     0.752906  Biso 1.000000     H
    H   1.0     0.949726     0.138231     0.897954  Biso 1.000000     H
    H   1.0     0.029566     0.319210     0.533085  Biso 1.000000     H
    H   1.0     0.163815     0.650801     0.232493  Biso 1.000000     H
    H   1.0     0.569597     0.961895     0.152006  Biso 1.000000     H
    H   1.0     0.880475     0.113776     0.135574  Biso 1.000000     H
    H   1.0     0.773349     0.318033     0.970237  Biso 1.000000     H
    H   1.0     0.802279     0.940045     0.278489  Biso 1.000000     H
    H   1.0     0.851925     0.940664     0.155788  Biso 1.000000     H
    H   1.0     0.745284     0.814076     0.276327  Biso 1.000000     H
    H   1.0     0.602451     0.149443     0.036667  Biso 1.000000     H
    H   1.0     0.966807     0.435434     0.852678  Biso 1.000000     H
    H   1.0     0.267174     0.604077     0.881844  Biso 1.000000     H
    H   1.0     0.386486     0.539458     0.391071  Biso 1.000000     H
    H   1.0     0.249963     0.386308     0.233306  Biso 1.000000     H
    H   1.0     0.211213     0.183115     0.544314  Biso 1.000000     H
    H   1.0     0.281482     0.560729     0.137048  Biso 1.000000     H
    H   1.0     0.402678     0.558076     0.089208  Biso 1.000000     H
    H   1.0     0.409981     0.685780     0.068153  Biso 1.000000     H
    H   1.0     0.313986     0.352167     0.545957  Biso 1.000000     H
    H   1.0     0.211106     0.064460     0.469170  Biso 1.000000     H
    H   1.0     0.013100     0.894828     0.338106  Biso 1.000000     H
    H   1.0     0.649850     0.718428     0.885178  Biso 1.000000     H
    H   1.0     0.634028     0.014649     0.749940  Biso 1.000000     H
    H   1.0     0.469902     0.742177     0.710471  Biso 1.000000     H
    H   1.0     0.777104     0.078903     0.780639  Biso 1.000000     H
    H   1.0     0.653370     0.000000     0.901505  Biso 1.000000     H
    H   1.0     0.772803     0.018789     0.909281  Biso 1.000000     H
    H   1.0     0.535630     0.636609     0.812531  Biso 1.000000     H
    H   1.0     0.352319     0.818677     0.710586  Biso 1.000000     H
    H   1.0     0.382071     0.150082     0.513431  Biso 1.000000     H
    H   1.0     0.895403     0.781028     0.069881  Biso 1.000000     H
    H   1.0     0.734152     0.485877     0.381470  Biso 1.000000     H
    H   1.0     0.046850     0.756289     0.273038  Biso 1.000000     H
    H   1.0     0.638110     0.421801     0.303592  Biso 1.000000     H
    H   1.0     0.591356     0.496501     0.353249  Biso 1.000000     H
    H   1.0     0.570372     0.483046     0.247072  Biso 1.000000     H
    H   1.0     0.050312     0.861832     0.102034  Biso 1.000000     H
    H   1.0     0.970471     0.680851     0.466903  Biso 1.000000     H
    H   1.0     0.836221     0.349260     0.767494  Biso 1.000000     H
    H   1.0     0.430431     0.038161     0.847988  Biso 1.000000     H
    H   1.0     0.119554     0.886284     0.864417  Biso 1.000000     H
    H   1.0     0.226680     0.682023     0.029750  Biso 1.000000     H
    H   1.0     0.197756     0.060015     0.721499  Biso 1.000000     H
    H   1.0     0.148105     0.059395     0.844199  Biso 1.000000     H
    H   1.0     0.254748     0.185984     0.723663  Biso 1.000000     H
    H   1.0     0.397578     0.850612     0.963320  Biso 1.000000     H
    H   1.0     0.033223     0.564625     0.147309  Biso 1.000000     H
    H   1.0     0.732859     0.395980     0.118140  Biso 1.000000     H
    H   1.0     0.613549     0.460602     0.608910  Biso 1.000000     H
    H   1.0     0.750072     0.613750     0.766677  Biso 1.000000     H
    H   1.0     0.788821     0.816944     0.455669  Biso 1.000000     H
    H   1.0     0.718552     0.439328     0.862935  Biso 1.000000     H
    H   1.0     0.597355     0.441981     0.910774  Biso 1.000000     H
    H   1.0     0.590052     0.314278     0.931829  Biso 1.000000     H
    H   1.0     0.686049     0.647893     0.454026  Biso 1.000000     H
    H   1.0     0.788931     0.935601     0.530811  Biso 1.000000     H
    H   1.0     0.986930     0.105229     0.661881  Biso 1.000000     H
    C   1.0     0.379575     0.236093     0.160002  Biso 1.000000     C
    C   1.0     0.351849     0.129567     0.176739  Biso 1.000000     C
    C   1.0     0.386828     0.068078     0.235930  Biso 1.000000     C
    C   1.0     0.452175     0.115037     0.275938  Biso 1.000000     C
    C   1.0     0.480974     0.221842     0.257651  Biso 1.000000     C
    C   1.0     0.491412     0.051442     0.334166  Biso 1.000000     C
    C   1.0     0.602800     0.013752     0.388886  Biso 1.000000     C
    C   1.0     0.271080    -0.008886     0.136210  Biso 1.000000     C
    C   1.0     0.508924     0.915985     0.426897  Biso 1.000000     C
    C   1.0     0.701031     0.036520     0.401249  Biso 1.000000     C
    C   1.0     0.476418     0.799023     0.492197  Biso 1.000000     C
    C   1.0     0.443522     0.281075     0.200372  Biso 1.000000     C
    C   1.0     0.104940     0.264562     0.855321  Biso 1.000000     C
    C   1.0     0.194932     0.370495     0.776595  Biso 1.000000     C
    C   1.0     0.197194     0.431953     0.680303  Biso 1.000000     C
    C   1.0     0.109982     0.385559     0.662032  Biso 1.000000     C
    C   1.0     0.021271     0.279339     0.739983  Biso 1.000000     C
    C   1.0     0.115194     0.449152     0.559484  Biso 1.000000     C
    C   1.0     0.097756     0.486910     0.410847  Biso 1.000000     C
    C   1.0     0.374317     0.507517     0.718877  Biso 1.000000     C
    C   1.0     0.157870     0.584668     0.406991  Biso 1.000000     C
    C   1.0     0.062472     0.464186     0.335463  Biso 1.000000     C
    C   1.0     0.209626     0.701671     0.322912  Biso 1.000000     C
    C   1.0     0.019347     0.220120     0.836489  Biso 1.000000     C
    C   1.0     0.644357     0.036809     0.122271  Biso 1.000000     C
    C   1.0     0.722701     0.025835     0.150135  Biso 1.000000     C
    C   1.0     0.818956     0.120446     0.114692  Biso 1.000000     C
    C   1.0     0.837528     0.226196     0.048838  Biso 1.000000     C
    C   1.0     0.760005     0.236673     0.019866  Biso 1.000000     C
    C   1.0     0.940031     0.324131     0.009240  Biso 1.000000     C
    C   1.0     0.088839     0.490729     0.897319  Biso 1.000000     C
    C   1.0     0.779738     0.903867     0.231426  Biso 1.000000     C
    C   1.0     0.092390     0.435069     0.991329  Biso 1.000000     C
    C   1.0     0.164384     0.601450     0.798743  Biso 1.000000     C
    C   1.0     0.176259     0.468337     0.023822  Biso 1.000000     C
    C   1.0     0.663561     0.141516     0.057718  Biso 1.000000     C
    C   1.0     0.340994     0.464316     0.391549  Biso 1.000000     C
    C   1.0     0.323824     0.474833     0.302562  Biso 1.000000     C
    C   1.0     0.264349     0.379951     0.301270  Biso 1.000000     C
    C   1.0     0.224418     0.274359     0.388481  Biso 1.000000     C
    C   1.0     0.243070     0.264327     0.476220  Biso 1.000000     C
    C   1.0     0.166011     0.176097     0.384184  Biso 1.000000     C
    C   1.0     0.111261     0.008927     0.402478  Biso 1.000000     C
    C   1.0     0.364572     0.596083     0.123764  Biso 1.000000     C
    C   1.0     0.072976     0.064679     0.343047  Biso 1.000000     C
    C   1.0     0.099179     0.897935     0.437895  Biso 1.000000     C
    C   1.0     0.007277     0.031227     0.292452  Biso 1.000000     C
    C   1.0     0.300717     0.359766     0.477135  Biso 1.000000     C
    C   1.0     0.620460     0.763967     0.839982  Biso 1.000000     C
    C   1.0     0.648188     0.870493     0.823245  Biso 1.000000     C
    C   1.0     0.613207     0.931981     0.764056  Biso 1.000000     C
    C   1.0     0.547857     0.885021     0.724051  Biso 1.000000     C
    C   1.0     0.519059     0.778217     0.742335  Biso 1.000000     C
    C   1.0     0.508620     0.948617     0.665822  Biso 1.000000     C
    C   1.0     0.397233     0.986310     0.611103  Biso 1.000000     C
    C   1.0     0.728954     0.008942     0.863776  Biso 1.000000     C
    C   1.0     0.491110     0.084075     0.573092  Biso 1.000000     C
    C   1.0     0.299003     0.963542     0.598737  Biso 1.000000     C
    C   1.0     0.523617     0.201039     0.507795  Biso 1.000000     C
    C   1.0     0.556512     0.718984     0.799613  Biso 1.000000     C
    C   1.0     0.895100     0.735501     0.144663  Biso 1.000000     C
    C   1.0     0.805108     0.629568     0.223388  Biso 1.000000     C
    C   1.0     0.802845     0.568109     0.319681  Biso 1.000000     C
    C   1.0     0.890056     0.614503     0.337954  Biso 1.000000     C
    C   1.0     0.978766     0.720724     0.260005  Biso 1.000000     C
    C   1.0     0.884840     0.550909     0.440503  Biso 1.000000     C
    C   1.0     0.902278     0.513151     0.589141  Biso 1.000000     C
    C   1.0     0.625725     0.492545     0.281103  Biso 1.000000     C
    C   1.0     0.842165     0.415392     0.592996  Biso 1.000000     C
    C   1.0     0.937564     0.535875     0.664524  Biso 1.000000     C
    C   1.0     0.790408     0.298390     0.677075  Biso 1.000000     C
    C   1.0     0.980692     0.779943     0.163497  Biso 1.000000     C
    C   1.0     0.355674     0.963247     0.877718  Biso 1.000000     C
    C   1.0     0.277332     0.974223     0.849851  Biso 1.000000     C
    C   1.0     0.181076     0.879613     0.885294  Biso 1.000000     C
    C   1.0     0.162501     0.773863     0.951151  Biso 1.000000     C
    C   1.0     0.240025     0.763383     0.980119  Biso 1.000000     C
    C   1.0     0.060002     0.675926     0.990745  Biso 1.000000     C
    C   1.0     0.911192     0.509328     0.102667  Biso 1.000000     C
    C   1.0     0.220295     0.096193     0.768563  Biso 1.000000     C
    C   1.0     0.907639     0.564990     0.008659  Biso 1.000000     C
    C   1.0     0.835647     0.398608     0.201244  Biso 1.000000     C
    C   1.0     0.823771     0.531724     0.976165  Biso 1.000000     C
    C   1.0     0.336468     0.858539     0.942270  Biso 1.000000     C
    C   1.0     0.659041     0.535744     0.608433  Biso 1.000000     C
    C   1.0     0.676212     0.525226     0.697419  Biso 1.000000     C
    C   1.0     0.735686     0.620108     0.698713  Biso 1.000000     C
    C   1.0     0.775617     0.725700     0.611502  Biso 1.000000     C
    C   1.0     0.756964     0.735732     0.523762  Biso 1.000000     C
    C   1.0     0.834025     0.823963     0.615798  Biso 1.000000     C
    C   1.0     0.888775     0.991132     0.597505  Biso 1.000000     C
    C   1.0     0.635462     0.403975     0.876218  Biso 1.000000     C
    C   1.0     0.927058     0.935380     0.656937  Biso 1.000000     C
    C   1.0     0.900858     0.102125     0.562087  Biso 1.000000     C
    C   1.0     0.992753     0.968830     0.707537  Biso 1.000000     C
    C   1.0     0.699317     0.640293     0.522847  Biso 1.000000     C
    N   1.0     0.440018     0.940307     0.393960  Biso 1.000000     N
    N   1.0     0.589302     0.097783     0.331330  Biso 1.000000     N
    N   1.0     0.166735     0.560306     0.499954  Biso 1.000000     N
    N   1.0     0.071349     0.402844     0.508066  Biso 1.000000     N
    N   1.0     0.999294     0.332964     0.060585  Biso 1.000000     N
    N   1.0     0.991663     0.419268     0.911085  Biso 1.000000     N
    N   1.0     0.105925     0.167165     0.333669  Biso 1.000000     N
    N   1.0     0.168980     0.080712     0.427983  Biso 1.000000     N
    N   1.0     0.560016     0.059752     0.606026  Biso 1.000000     N
    N   1.0     0.410730     0.902278     0.668660  Biso 1.000000     N
    N   1.0     0.833300     0.439755     0.500032  Biso 1.000000     N
    N   1.0     0.928686     0.597217     0.491921  Biso 1.000000     N
    N   1.0     0.000738     0.667092     0.939400  Biso 1.000000     N
    N   1.0     0.008364     0.580793     0.088904  Biso 1.000000     N
    N   1.0     0.894109     0.832893     0.666316  Biso 1.000000     N
    N   1.0     0.831056     0.919348     0.571999  Biso 1.000000     N
    O   1.0     0.291507     0.094088     0.131244  Biso 1.000000     O
    O   1.0     0.769469     0.137317     0.361738  Biso 1.000000     O
    O   1.0     0.710128     0.953520     0.450382  Biso 1.000000     O
    O   1.0     0.383997     0.723444     0.525112  Biso 1.000000     O
    O   1.0     0.546140     0.776225     0.515036  Biso 1.000000     O
    O   1.0     0.276093     0.405434     0.801356  Biso 1.000000     O
    O   1.0     0.001178     0.363467     0.367525  Biso 1.000000     O
    O   1.0     0.096120     0.547250     0.243768  Biso 1.000000     O
    O   1.0     0.252681     0.777203     0.339829  Biso 1.000000     O
    O   1.0     0.209320     0.724516     0.230636  Biso 1.000000     O
    O   1.0     0.697554     0.919570     0.211186  Biso 1.000000     O
    O   1.0     0.132418     0.630363     0.730275  Biso 1.000000     O
    O   1.0     0.256248     0.659785     0.789373  Biso 1.000000     O
    O   1.0     0.159075     0.409089     0.116412  Biso 1.000000     O
    O   1.0     0.268702     0.561013     0.953858  Biso 1.000000     O
    O   1.0     0.369227     0.580966     0.221341  Biso 1.000000     O
    O   1.0     0.138922     0.869167     0.498619  Biso 1.000000     O
    O   1.0     0.049961     0.839199     0.404726  Biso 1.000000     O
    O   1.0     0.974265     0.090841     0.249876  Biso 1.000000     O
    O   1.0     0.984192     0.937964     0.293337  Biso 1.000000     O
    O   1.0     0.708528     0.905971     0.868742  Biso 1.000000     O
    O   1.0     0.230564     0.862745     0.638250  Biso 1.000000     O
    O   1.0     0.289908     0.046544     0.549604  Biso 1.000000     O
    O   1.0     0.616039     0.276616     0.474876  Biso 1.000000     O
    O   1.0     0.453897     0.223838     0.484951  Biso 1.000000     O
    O   1.0     0.723950     0.594627     0.198624  Biso 1.000000     O
    O   1.0     0.998855     0.636593     0.632463  Biso 1.000000     O
    O   1.0     0.903913     0.452811     0.756220  Biso 1.000000     O
    O   1.0     0.747352     0.222857     0.660159  Biso 1.000000     O
    O   1.0     0.790716     0.275545     0.769350  Biso 1.000000     O
    O   1.0     0.302474     0.080490     0.788813  Biso 1.000000     O
    O   1.0     0.867613     0.369697     0.269712  Biso 1.000000     O
    O   1.0     0.743783     0.340272     0.210613  Biso 1.000000     O
    O   1.0     0.840958     0.590967     0.883572  Biso 1.000000     O
    O   1.0     0.731331     0.439042     0.046125  Biso 1.000000     O
    O   1.0     0.630808     0.419093     0.778641  Biso 1.000000     O
    O   1.0     0.861115     0.130893     0.501363  Biso 1.000000     O
    O   1.0     0.950074     0.160860     0.595259  Biso 1.000000     O
    O   1.0     0.025764     0.909216     0.750113  Biso 1.000000     O
    O   1.0     0.015836     0.062092     0.706653  Biso 1.000000     O
   Sr   1.0     0.228675     0.749990     0.521868  Biso 1.000000    Sr
   Sr   1.0     0.977683     0.250459     0.272036  Biso 1.000000    Sr
   Sr   1.0     0.771361     0.250070     0.478119  Biso 1.000000    Sr
   Sr   1.0     0.022350     0.749600     0.727951  Biso 1.000000    Sr
