#======================================================================

# CRYSTAL DATA

#----------------------------------------------------------------------

data_VESTA_phase_1


_pd_phase_name                         MOF
_cell_length_a                         16.11100
_cell_length_b                         16.58900
_cell_length_c                         19.56400
_cell_angle_alpha                      90.02800
_cell_angle_beta                       90.00000
_cell_angle_gamma                      89.99100
_symmetry_space_group_name_H-M         "P 1"
_symmetry_Int_Tables_number            1

loop_
_symmetry_equiv_pos_as_xyz
   "x, y, z"

loop_
   _atom_site_label
   _atom_site_occupancy
   _atom_site_fract_x
   _atom_site_fract_y
   _atom_site_fract_z
   _atom_site_adp_type
   _atom_site_B_iso_or_equiv
   _atom_site_type_symbol
    H   1.0     0.201893     0.943354     0.078661  Biso 1.000000     H
    H   1.0     0.295528     0.057551     0.110023  Biso 1.000000     H
    H   1.0     0.393236     0.051256     0.905096  Biso 1.000000     H
    H   1.0     0.013132     0.040743     0.696480  Biso 1.000000     H
    H   1.0     0.956914     0.131668     0.788929  Biso 1.000000     H
    H   1.0     0.173763     0.075212     0.908348  Biso 1.000000     H
    H   1.0     0.408541     0.104733     0.603449  Biso 1.000000     H
    H   1.0     0.572166     0.237374     0.783911  Biso 1.000000     H
    H   1.0     0.467926     0.133982     0.817330  Biso 1.000000     H
    H   1.0     0.298014     0.556747     0.078802  Biso 1.000000     H
    H   1.0     0.204429     0.442541     0.110105  Biso 1.000000     H
    H   1.0     0.106554     0.448844     0.905237  Biso 1.000000     H
    H   1.0     0.486963     0.459304     0.696753  Biso 1.000000     H
    H   1.0     0.543031     0.368317     0.789143  Biso 1.000000     H
    H   1.0     0.326094     0.424773     0.908469  Biso 1.000000     H
    H   1.0     0.091288     0.395366     0.603419  Biso 1.000000     H
    H   1.0     0.927905     0.262549     0.783845  Biso 1.000000     H
    H   1.0     0.032237     0.365895     0.817318  Biso 1.000000     H
    H   1.0     0.797894     0.443268     0.421041  Biso 1.000000     H
    H   1.0     0.704306     0.557539     0.389846  Biso 1.000000     H
    H   1.0     0.606396     0.550989     0.594710  Biso 1.000000     H
    H   1.0     0.986536     0.540739     0.803407  Biso 1.000000     H
    H   1.0     0.042623     0.631813     0.711077  Biso 1.000000     H
    H   1.0     0.826006     0.575003     0.591468  Biso 1.000000     H
    H   1.0     0.591430     0.604857     0.896558  Biso 1.000000     H
    H   1.0     0.427873     0.737462     0.716117  Biso 1.000000     H
    H   1.0     0.532237     0.634138     0.682667  Biso 1.000000     H
    H   1.0     0.701907     0.056671     0.421263  Biso 1.000000     H
    H   1.0     0.795536     0.942426     0.389950  Biso 1.000000     H
    H   1.0     0.893452     0.948984     0.594821  Biso 1.000000     H
    H   1.0     0.513518     0.959300     0.803710  Biso 1.000000     H
    H   1.0     0.457287     0.868303     0.711332  Biso 1.000000     H
    H   1.0     0.673737     0.925082     0.591586  Biso 1.000000     H
    H   1.0     0.908368     0.895087     0.896504  Biso 1.000000     H
    H   1.0     0.072216     0.762657     0.716026  Biso 1.000000     H
    H   1.0     0.967880     0.866016     0.682632  Biso 1.000000     H
    H   1.0     0.798068     0.056669     0.921374  Biso 1.000000     H
    H   1.0     0.704436     0.942468     0.890013  Biso 1.000000     H
    H   1.0     0.606723     0.948771     0.094940  Biso 1.000000     H
    H   1.0     0.986836     0.959297     0.303554  Biso 1.000000     H
    H   1.0     0.043059     0.868373     0.211107  Biso 1.000000     H
    H   1.0     0.826206     0.924817     0.091687  Biso 1.000000     H
    H   1.0     0.591429     0.895293     0.396588  Biso 1.000000     H
    H   1.0     0.427796     0.762656     0.216129  Biso 1.000000     H
    H   1.0     0.532041     0.866043     0.182709  Biso 1.000000     H
    H   1.0     0.701955     0.443271     0.921230  Biso 1.000000     H
    H   1.0     0.795541     0.557477     0.889928  Biso 1.000000     H
    H   1.0     0.893403     0.551185     0.094799  Biso 1.000000     H
    H   1.0     0.513006     0.540728     0.303284  Biso 1.000000     H
    H   1.0     0.456937     0.631713     0.210893  Biso 1.000000     H
    H   1.0     0.673868     0.575253     0.091564  Biso 1.000000     H
    H   1.0     0.908680     0.604661     0.396612  Biso 1.000000     H
    H   1.0     0.072059     0.737482     0.216186  Biso 1.000000     H
    H   1.0     0.967731     0.634133     0.182712  Biso 1.000000     H
    H   1.0     0.202073     0.556765     0.578989  Biso 1.000000     H
    H   1.0     0.295658     0.442493     0.610189  Biso 1.000000     H
    H   1.0     0.393579     0.449043     0.405326  Biso 1.000000     H
    H   1.0     0.013430     0.459300     0.196626  Biso 1.000000     H
    H   1.0     0.957343     0.368222     0.288953  Biso 1.000000     H
    H   1.0     0.173960     0.425029     0.408564  Biso 1.000000     H
    H   1.0     0.408530     0.395165     0.103474  Biso 1.000000     H
    H   1.0     0.572095     0.262568     0.283914  Biso 1.000000     H
    H   1.0     0.467732     0.365894     0.317364  Biso 1.000000     H
    H   1.0     0.298057     0.943352     0.578778  Biso 1.000000     H
    H   1.0     0.204427     0.057594     0.610092  Biso 1.000000     H
    H   1.0     0.106524     0.051053     0.405217  Biso 1.000000     H
    H   1.0     0.486453     0.040731     0.196332  Biso 1.000000     H
    H   1.0     0.542681     0.131729     0.288710  Biso 1.000000     H
    H   1.0     0.326227     0.074954     0.408451  Biso 1.000000     H
    H   1.0     0.091589     0.104933     0.103534  Biso 1.000000     H
    H   1.0     0.927751     0.237375     0.284013  Biso 1.000000     H
    H   1.0     0.032083     0.134014     0.317408  Biso 1.000000     H
    C   1.0     0.186693     0.875080     0.948811  Biso 1.000000     C
    C   1.0     0.245437     0.939937     0.974524  Biso 1.000000     C
    C   1.0     0.244308     0.968816     0.041238  Biso 1.000000     C
    C   1.0     0.297793     0.031702     0.059058  Biso 1.000000     C
    C   1.0     0.353436     0.062244     0.010835  Biso 1.000000     C
    C   1.0     0.352026     0.029455     0.945020  Biso 1.000000     C
    C   1.0     0.410871     0.130768     0.029035  Biso 1.000000     C
    C   1.0     0.146235     0.939560     0.707924  Biso 1.000000     C
    C   1.0     0.118948     0.006860     0.756061  Biso 1.000000     C
    C   1.0     0.046413     0.050440     0.744071  Biso 1.000000     C
    C   1.0     0.016145     0.100974     0.795108  Biso 1.000000     C
    C   1.0     0.061056     0.109679     0.855960  Biso 1.000000     C
    C   1.0     0.136118     0.068416     0.862490  Biso 1.000000     C
    C   1.0     0.029333     0.159098     0.913954  Biso 1.000000     C
    C   1.0     0.364885     0.048788     0.728716  Biso 1.000000     C
    C   1.0     0.429070     0.112150     0.713009  Biso 1.000000     C
    C   1.0     0.443079     0.133501     0.644637  Biso 1.000000     C
    C   1.0     0.542670     0.227924     0.676639  Biso 1.000000     C
    C   1.0     0.533658     0.208578     0.745392  Biso 1.000000     C
    C   1.0     0.475525     0.150285     0.763859  Biso 1.000000     C
    C   1.0     0.599909     0.293877     0.653367  Biso 1.000000     C
    C   1.0     0.313194     0.624953     0.948969  Biso 1.000000     C
    C   1.0     0.254432     0.560134     0.974675  Biso 1.000000     C
    C   1.0     0.255579     0.531283     0.041373  Biso 1.000000     C
    C   1.0     0.202111     0.468395     0.059164  Biso 1.000000     C
    C   1.0     0.146442     0.437846     0.010937  Biso 1.000000     C
    C   1.0     0.147807     0.470638     0.945151  Biso 1.000000     C
    C   1.0     0.089070     0.369271     0.029090  Biso 1.000000     C
    C   1.0     0.353811     0.560417     0.708164  Biso 1.000000     C
    C   1.0     0.381065     0.493150     0.756285  Biso 1.000000     C
    C   1.0     0.453621     0.449582     0.744303  Biso 1.000000     C
    C   1.0     0.483824     0.399022     0.795300  Biso 1.000000     C
    C   1.0     0.438844     0.390310     0.856108  Biso 1.000000     C
    C   1.0     0.363779     0.431573     0.862638  Biso 1.000000     C
    C   1.0     0.470541     0.340883     0.914056  Biso 1.000000     C
    C   1.0     0.135092     0.451207     0.728755  Biso 1.000000     C
    C   1.0     0.070912     0.387846     0.712994  Biso 1.000000     C
    C   1.0     0.056820     0.366556     0.644602  Biso 1.000000     C
    C   1.0     0.957263     0.272087     0.676562  Biso 1.000000     C
    C   1.0     0.966363     0.291373     0.745332  Biso 1.000000     C
    C   1.0     0.024546     0.349647     0.763832  Biso 1.000000     C
    C   1.0     0.899990     0.206145     0.653269  Biso 1.000000     C
    C   1.0     0.813133     0.374980     0.550883  Biso 1.000000     C
    C   1.0     0.754322     0.439778     0.525197  Biso 1.000000     C
    C   1.0     0.755458     0.468689     0.458497  Biso 1.000000     C
    C   1.0     0.701987     0.531609     0.440759  Biso 1.000000     C
    C   1.0     0.646320     0.562112     0.489011  Biso 1.000000     C
    C   1.0     0.647665     0.529236     0.554786  Biso 1.000000     C
    C   1.0     0.588995     0.630746     0.470914  Biso 1.000000     C
    C   1.0     0.853559     0.439492     0.791851  Biso 1.000000     C
    C   1.0     0.880802     0.506774     0.743753  Biso 1.000000     C
    C   1.0     0.953269     0.550422     0.755814  Biso 1.000000     C
    C   1.0     0.983461     0.601022     0.704850  Biso 1.000000     C
    C   1.0     0.938581     0.609664     0.643982  Biso 1.000000     C
    C   1.0     0.863613     0.568287     0.637353  Biso 1.000000     C
    C   1.0     0.970328     0.659122     0.586081  Biso 1.000000     C
    C   1.0     0.635142     0.548845     0.771242  Biso 1.000000     C
    C   1.0     0.570983     0.612264     0.786984  Biso 1.000000     C
    C   1.0     0.556910     0.633607     0.855369  Biso 1.000000     C
    C   1.0     0.457280     0.728009     0.823397  Biso 1.000000     C
    C   1.0     0.466369     0.708682     0.754635  Biso 1.000000     C
    C   1.0     0.524565     0.650420     0.736147  Biso 1.000000     C
    C   1.0     0.399947     0.793929     0.846683  Biso 1.000000     C
    C   1.0     0.686719     0.124997     0.551111  Biso 1.000000     C
    C   1.0     0.745517     0.060179     0.525401  Biso 1.000000     C
    C   1.0     0.744363     0.031256     0.458684  Biso 1.000000     C
    C   1.0     0.797847     0.968349     0.440887  Biso 1.000000     C
    C   1.0     0.853533     0.937862     0.489106  Biso 1.000000     C
    C   1.0     0.852183     0.970729     0.554911  Biso 1.000000     C
    C   1.0     0.910910     0.869268     0.470948  Biso 1.000000     C
    C   1.0     0.646486     0.060571     0.792112  Biso 1.000000     C
    C   1.0     0.619164     0.993282     0.743988  Biso 1.000000     C
    C   1.0     0.546707     0.949641     0.756068  Biso 1.000000     C
    C   1.0     0.516426     0.899071     0.705071  Biso 1.000000     C
    C   1.0     0.561219     0.890429     0.644153  Biso 1.000000     C
    C   1.0     0.636191     0.931795     0.637510  Biso 1.000000     C
    C   1.0     0.529446     0.840959     0.586216  Biso 1.000000     C
    C   1.0     0.864805     0.951179     0.771262  Biso 1.000000     C
    C   1.0     0.928975     0.887777     0.786952  Biso 1.000000     C
    C   1.0     0.942963     0.866374     0.855316  Biso 1.000000     C
    C   1.0     0.042679     0.772023     0.823296  Biso 1.000000     C
    C   1.0     0.033671     0.791406     0.754551  Biso 1.000000     C
    C   1.0     0.975467     0.849683     0.736097  Biso 1.000000     C
    C   1.0     0.099963     0.706079     0.846558  Biso 1.000000     C
    C   1.0     0.813274     0.124934     0.051222  Biso 1.000000     C
    C   1.0     0.754523     0.060085     0.025510  Biso 1.000000     C
    C   1.0     0.755652     0.031206     0.958796  Biso 1.000000     C
    C   1.0     0.702168     0.968319     0.940977  Biso 1.000000     C
    C   1.0     0.646525     0.937778     0.989200  Biso 1.000000     C
    C   1.0     0.647933     0.970570     0.055015  Biso 1.000000     C
    C   1.0     0.589097     0.869247     0.971001  Biso 1.000000     C
    C   1.0     0.853725     0.060464     0.292115  Biso 1.000000     C
    C   1.0     0.881017     0.993170     0.243975  Biso 1.000000     C
    C   1.0     0.953555     0.949595     0.255964  Biso 1.000000     C
    C   1.0     0.983827     0.899064     0.204927  Biso 1.000000     C
    C   1.0     0.938914     0.890354     0.144077  Biso 1.000000     C
    C   1.0     0.863851     0.931615     0.137545  Biso 1.000000     C
    C   1.0     0.970635     0.840923     0.086088  Biso 1.000000     C
    C   1.0     0.635088     0.951228     0.271319  Biso 1.000000     C
    C   1.0     0.570894     0.887877     0.287030  Biso 1.000000     C
    C   1.0     0.556888     0.866527     0.355402  Biso 1.000000     C
    C   1.0     0.457300     0.772100     0.323400  Biso 1.000000     C
    C   1.0     0.466306     0.791450     0.254648  Biso 1.000000     C
    C   1.0     0.524440     0.849742     0.236180  Biso 1.000000     C
    C   1.0     0.400061     0.706147     0.346673  Biso 1.000000     C
    C   1.0     0.686775     0.375061     0.051064  Biso 1.000000     C
    C   1.0     0.745533     0.439886     0.025358  Biso 1.000000     C
    C   1.0     0.744388     0.468736     0.958659  Biso 1.000000     C
    C   1.0     0.797855     0.531625     0.940869  Biso 1.000000     C
    C   1.0     0.853521     0.562175     0.989097  Biso 1.000000     C
    C   1.0     0.852152     0.529388     0.054884  Biso 1.000000     C
    C   1.0     0.910898     0.630743     0.970941  Biso 1.000000     C
    C   1.0     0.646159     0.439612     0.291872  Biso 1.000000     C
    C   1.0     0.618906     0.506883     0.243753  Biso 1.000000     C
    C   1.0     0.546348     0.550448     0.255734  Biso 1.000000     C
    C   1.0     0.516141     0.601005     0.204735  Biso 1.000000     C
    C   1.0     0.561120     0.609715     0.143927  Biso 1.000000     C
    C   1.0     0.636183     0.568450     0.137395  Biso 1.000000     C
    C   1.0     0.529422     0.659136     0.085977  Biso 1.000000     C
    C   1.0     0.864880     0.548810     0.271277  Biso 1.000000     C
    C   1.0     0.929055     0.612179     0.287036  Biso 1.000000     C
    C   1.0     0.943146     0.633471     0.355428  Biso 1.000000     C
    C   1.0     0.042702     0.727942     0.323468  Biso 1.000000     C
    C   1.0     0.033601     0.708656     0.254698  Biso 1.000000     C
    C   1.0     0.975419     0.650381     0.236198  Biso 1.000000     C
    C   1.0     0.099976     0.793881     0.346763  Biso 1.000000     C
    C   1.0     0.186832     0.625041     0.449146  Biso 1.000000     C
    C   1.0     0.245648     0.560251     0.474835  Biso 1.000000     C
    C   1.0     0.244512     0.531342     0.541536  Biso 1.000000     C
    C   1.0     0.297981     0.468421     0.559275  Biso 1.000000     C
    C   1.0     0.353649     0.437916     0.511024  Biso 1.000000     C
    C   1.0     0.352307     0.470795     0.445250  Biso 1.000000     C
    C   1.0     0.410971     0.369276     0.529116  Biso 1.000000     C
    C   1.0     0.146414     0.560534     0.208178  Biso 1.000000     C
    C   1.0     0.119165     0.493259     0.256280  Biso 1.000000     C
    C   1.0     0.046697     0.449614     0.244219  Biso 1.000000     C
    C   1.0     0.016506     0.399011     0.295182  Biso 1.000000     C
    C   1.0     0.061386     0.390366     0.356050  Biso 1.000000     C
    C   1.0     0.136353     0.431743     0.362679  Biso 1.000000     C
    C   1.0     0.029641     0.340899     0.413947  Biso 1.000000     C
    C   1.0     0.364821     0.451173     0.228790  Biso 1.000000     C
    C   1.0     0.428984     0.387760     0.213047  Biso 1.000000     C
    C   1.0     0.443052     0.366414     0.144662  Biso 1.000000     C
    C   1.0     0.542694     0.272024     0.176634  Biso 1.000000     C
    C   1.0     0.533600     0.291348     0.245397  Biso 1.000000     C
    C   1.0     0.475402     0.349607     0.263885  Biso 1.000000     C
    C   1.0     0.600020     0.206097     0.153349  Biso 1.000000     C
    C   1.0     0.313244     0.875022     0.448928  Biso 1.000000     C
    C   1.0     0.254450     0.939845     0.474638  Biso 1.000000     C
    C   1.0     0.255603     0.968767     0.541356  Biso 1.000000     C
    C   1.0     0.202119     0.031674     0.559153  Biso 1.000000     C
    C   1.0     0.146434     0.062162     0.510934  Biso 1.000000     C
    C   1.0     0.147791     0.029303     0.445127  Biso 1.000000     C
    C   1.0     0.089055     0.130752     0.529096  Biso 1.000000     C
    C   1.0     0.353482     0.939460     0.207928  Biso 1.000000     C
    C   1.0     0.380799     0.006755     0.256048  Biso 1.000000     C
    C   1.0     0.453261     0.050391     0.243972  Biso 1.000000     C
    C   1.0     0.483543     0.100959     0.294971  Biso 1.000000     C
    C   1.0     0.438747     0.109603     0.355888  Biso 1.000000     C
    C   1.0     0.363775     0.068236     0.362530  Biso 1.000000     C
    C   1.0     0.470521     0.159063     0.413830  Biso 1.000000     C
    C   1.0     0.135155     0.048839     0.228775  Biso 1.000000     C
    C   1.0     0.070989     0.112249     0.213088  Biso 1.000000     C
    C   1.0     0.056998     0.133648     0.144723  Biso 1.000000     C
    C   1.0     0.957285     0.228003     0.176743  Biso 1.000000     C
    C   1.0     0.966294     0.208623     0.245488  Biso 1.000000     C
    C   1.0     0.024497     0.150345     0.263943  Biso 1.000000     C
    C   1.0     0.900001     0.293945     0.153480  Biso 1.000000     C
    N   1.0     0.298315     0.971059     0.927420  Biso 1.000000     N
    N   1.0     0.163362     0.017939     0.813879  Biso 1.000000     N
    N   1.0     0.498710     0.189887     0.627330  Biso 1.000000     N
    N   1.0     0.201521     0.529017     0.927569  Biso 1.000000     N
    N   1.0     0.336579     0.482053     0.814054  Biso 1.000000     N
    N   1.0     0.000000     0.310162     0.627267  Biso 1.000000     N
    N   1.0     0.701399     0.470846     0.572328  Biso 1.000000     N
    N   1.0     0.836417     0.517795     0.685921  Biso 1.000000     N
    N   1.0     0.501228     0.689979     0.872692  Biso 1.000000     N
    N   1.0     0.798448     0.029119     0.572501  Biso 1.000000     N
    N   1.0     0.663461     0.982271     0.686101  Biso 1.000000     N
    N   1.0    -0.001336     0.810006     0.872611  Biso 1.000000     N
    N   1.0     0.701644     0.028967     0.072614  Biso 1.000000     N
    N   1.0     0.836607     0.982093     0.186154  Biso 1.000000     N
    N   1.0     0.501261     0.810136     0.372710  Biso 1.000000     N
    N   1.0     0.798439     0.471008     0.072466  Biso 1.000000     N
    N   1.0     0.663385     0.517970     0.185979  Biso 1.000000     N
    N   1.0    -0.001192     0.689866     0.372763  Biso 1.000000     N
    N   1.0     0.298573     0.529182     0.427706  Biso 1.000000     N
    N   1.0     0.163550     0.482236     0.314111  Biso 1.000000     N
    N   1.0     0.498736     0.310043     0.127339  Biso 1.000000     N
    N   1.0     0.201527     0.970914     0.427537  Biso 1.000000     N
    N   1.0     0.336506     0.017759     0.313939  Biso 1.000000     N
    N   1.0     0.000000     0.190016     0.127429  Biso 1.000000     N
    O   1.0     0.191429     0.854394     0.886391  Biso 1.000000     O
    O   1.0     0.135309     0.846815     0.992008  Biso 1.000000     O
    O   1.0     0.406386     0.163368     0.086237  Biso 1.000000     O
    O   1.0     0.462474     0.153347     0.981213  Biso 1.000000     O
    O   1.0     0.204694     0.892031     0.729908  Biso 1.000000     O
    O   1.0     0.108369     0.931339     0.653408  Biso 1.000000     O
    O   1.0     0.970185     0.208291     0.904317  Biso 1.000000     O
    O   1.0     0.062366     0.149464     0.973371  Biso 1.000000     O
    O   1.0     0.367335     0.020638     0.791103  Biso 1.000000     O
    O   1.0     0.315711     0.027434     0.683574  Biso 1.000000     O
    O   1.0     0.638928     0.330533     0.700708  Biso 1.000000     O
    O   1.0     0.605163     0.311948     0.590360  Biso 1.000000     O
    O   1.0     0.308442     0.645603     0.886556  Biso 1.000000     O
    O   1.0     0.364620     0.653227     0.992145  Biso 1.000000     O
    O   1.0     0.093630     0.336635     0.086248  Biso 1.000000     O
    O   1.0     0.037452     0.346652     0.981276  Biso 1.000000     O
    O   1.0     0.295308     0.607928     0.730119  Biso 1.000000     O
    O   1.0     0.391727     0.568603     0.653674  Biso 1.000000     O
    O   1.0     0.529623     0.291646     0.904337  Biso 1.000000     O
    O   1.0     0.437587     0.350538     0.973499  Biso 1.000000     O
    O   1.0     0.132630     0.479333     0.791174  Biso 1.000000     O
    O   1.0     0.184263     0.472582     0.683635  Biso 1.000000     O
    O   1.0     0.861024     0.169511     0.700623  Biso 1.000000     O
    O   1.0     0.894660     0.188081     0.590251  Biso 1.000000     O
    O   1.0     0.808419     0.354345     0.613298  Biso 1.000000     O
    O   1.0     0.864572     0.346719     0.507692  Biso 1.000000     O
    O   1.0     0.593565     0.663416     0.413773  Biso 1.000000     O
    O   1.0     0.537419     0.653372     0.518782  Biso 1.000000     O
    O   1.0     0.795137     0.391951     0.769835  Biso 1.000000     O
    O   1.0     0.891426     0.431320     0.846365  Biso 1.000000     O
    O   1.0     0.029348     0.708407     0.595893  Biso 1.000000     O
    O   1.0     0.937527     0.649427     0.526584  Biso 1.000000     O
    O   1.0     0.632664     0.520692     0.708827  Biso 1.000000     O
    O   1.0     0.684277     0.527436     0.816380  Biso 1.000000     O
    O   1.0     0.360977     0.830564     0.799328  Biso 1.000000     O
    O   1.0     0.394570     0.811966     0.909708  Biso 1.000000     O
    O   1.0     0.691426     0.145669     0.613533  Biso 1.000000     O
    O   1.0     0.635307     0.153230     0.507909  Biso 1.000000     O
    O   1.0     0.906389     0.836612     0.413773  Biso 1.000000     O
    O   1.0     0.962481     0.846674     0.518813  Biso 1.000000     O
    O   1.0     0.704869     0.108120     0.770067  Biso 1.000000     O
    O   1.0     0.608701     0.068753     0.846670  Biso 1.000000     O
    O   1.0     0.470383     0.791746     0.595935  Biso 1.000000     O
    O   1.0     0.562377     0.850578     0.526758  Biso 1.000000     O
    O   1.0     0.867276     0.979349     0.708879  Biso 1.000000     O
    O   1.0     0.815651     0.972555     0.816415  Biso 1.000000     O
    O   1.0     0.138976     0.669411     0.799215  Biso 1.000000     O
    O   1.0     0.105246     0.688022     0.909569  Biso 1.000000     O
    O   1.0     0.808548     0.145615     0.113644  Biso 1.000000     O
    O   1.0     0.864660     0.153193     0.008024  Biso 1.000000     O
    O   1.0     0.593589     0.836639     0.913802  Biso 1.000000     O
    O   1.0     0.537494     0.846667     0.018822  Biso 1.000000     O
    O   1.0     0.795263     0.107989     0.270133  Biso 1.000000     O
    O   1.0     0.891594     0.068684     0.346630  Biso 1.000000     O
    O   1.0     0.029778     0.791725     0.095731  Biso 1.000000     O
    O   1.0     0.937601     0.850545     0.026670  Biso 1.000000     O
    O   1.0     0.632639     0.979376     0.208932  Biso 1.000000     O
    O   1.0     0.684270     0.972572     0.316458  Biso 1.000000     O
    O   1.0     0.361042     0.669491     0.299332  Biso 1.000000     O
    O   1.0     0.394803     0.688076     0.409679  Biso 1.000000     O
    O   1.0     0.691529     0.354407     0.113475  Biso 1.000000     O
    O   1.0     0.635350     0.346785     0.007887  Biso 1.000000     O
    O   1.0     0.906346     0.663367     0.913778  Biso 1.000000     O
    O   1.0     0.962510     0.653367     0.018758  Biso 1.000000     O
    O   1.0     0.704648     0.392088     0.269909  Biso 1.000000     O
    O   1.0     0.608245     0.431424     0.346363  Biso 1.000000     O
    O   1.0     0.470336     0.708371     0.095694  Biso 1.000000     O
    O   1.0     0.562376     0.649475     0.026535  Biso 1.000000     O
    O   1.0     0.867341     0.520682     0.208859  Biso 1.000000     O
    O   1.0     0.815714     0.527428     0.316399  Biso 1.000000     O
    O   1.0     0.138949     0.830509     0.299410  Biso 1.000000     O
    O   1.0     0.105303     0.811943     0.409782  Biso 1.000000     O
    O   1.0     0.191542     0.645668     0.386729  Biso 1.000000     O
    O   1.0     0.135393     0.653302     0.492336  Biso 1.000000     O
    O   1.0     0.406399     0.336593     0.586253  Biso 1.000000     O
    O   1.0     0.462546     0.346651     0.481247  Biso 1.000000     O
    O   1.0     0.204846     0.608067     0.230187  Biso 1.000000     O
    O   1.0     0.108547     0.568703     0.153663  Biso 1.000000     O
    O   1.0     0.970621     0.291613     0.404133  Biso 1.000000     O
    O   1.0     0.062445     0.350583     0.473444  Biso 1.000000     O
    O   1.0     0.367298     0.479323     0.291206  Biso 1.000000     O
    O   1.0     0.315683     0.472576     0.183653  Biso 1.000000     O
    O   1.0     0.638985     0.169455     0.200704  Biso 1.000000     O
    O   1.0     0.605383     0.188046     0.090326  Biso 1.000000     O
    O   1.0     0.308532     0.854345     0.386507  Biso 1.000000     O
    O   1.0     0.364658     0.846787     0.492127  Biso 1.000000     O
    O   1.0     0.093577     0.163400     0.586272  Biso 1.000000     O
    O   1.0     0.037481     0.153346     0.481232  Biso 1.000000     O
    O   1.0     0.295110     0.891903     0.229981  Biso 1.000000     O
    O   1.0     0.391264     0.931271     0.153370  Biso 1.000000     O
    O   1.0     0.529583     0.208278     0.404115  Biso 1.000000     O
    O   1.0     0.437594     0.149431     0.473287  Biso 1.000000     O
    O   1.0     0.132682     0.020666     0.291158  Biso 1.000000     O
    O   1.0     0.184302     0.027454     0.183619  Biso 1.000000     O
    O   1.0     0.860991     0.330616     0.200823  Biso 1.000000     O
    O   1.0     0.894712     0.311994     0.090467  Biso 1.000000     O
   In   1.0     0.526416     0.260185     0.020640  Biso 1.000000    In
   In   1.0     0.274202     0.929785     0.817697  Biso 1.000000    In
   In   1.0     0.973616     0.239788     0.020720  Biso 1.000000    In
   In   1.0     0.225700     0.570209     0.817838  Biso 1.000000    In
   In   1.0     0.473660     0.760309     0.479431  Biso 1.000000    In
   In   1.0     0.725612     0.429689     0.682063  Biso 1.000000    In
   In   1.0     0.026396     0.739765     0.479483  Biso 1.000000    In
   In   1.0     0.774285     0.070339     0.682231  Biso 1.000000    In
   In   1.0     0.473548     0.739832     0.979392  Biso 1.000000    In
   In   1.0     0.725763     0.070237     0.182338  Biso 1.000000    In
   In   1.0     0.026349     0.760229     0.979319  Biso 1.000000    In
   In   1.0     0.774263     0.429813     0.182196  Biso 1.000000    In
   In   1.0     0.526305     0.239715     0.520611  Biso 1.000000    In
   In   1.0     0.274358     0.570334     0.317968  Biso 1.000000    In
   In   1.0     0.973566     0.260260     0.520547  Biso 1.000000    In
   In   1.0     0.225682     0.929686     0.317809  Biso 1.000000    In
