#======================================================================

# CRYSTAL DATA

#----------------------------------------------------------------------

data_VESTA_phase_1


_pd_phase_name                         MOF
_cell_length_a                         18.85500
_cell_length_b                         18.85500
_cell_length_c                         18.85500
_cell_angle_alpha                      60.00000
_cell_angle_beta                       60.00000
_cell_angle_gamma                      60.00000
_symmetry_space_group_name_H-M         "P 1"
_symmetry_Int_Tables_number            1

loop_
_symmetry_equiv_pos_as_xyz
   "x, y, z"

loop_
   _atom_site_label
   _atom_site_occupancy
   _atom_site_fract_x
   _atom_site_fract_y
   _atom_site_fract_z
   _atom_site_adp_type
   _atom_site_B_iso_or_equiv
   _atom_site_type_symbol
    H   1.0     0.505156     0.733815     0.027274  Biso 1.000000     H
    H   1.0     0.733762     0.505160     0.733852  Biso 1.000000     H
    H   1.0     0.027249     0.733795     0.505152  Biso 1.000000     H
    H   1.0     0.733800     0.027263     0.733805  Biso 1.000000     H
    H   1.0     0.505147     0.027207     0.733874  Biso 1.000000     H
    H   1.0     0.733821     0.733829     0.027221  Biso 1.000000     H
    H   1.0     0.027249     0.505154     0.733802  Biso 1.000000     H
    H   1.0     0.733832     0.733773     0.505172  Biso 1.000000     H
    H   1.0     0.505148     0.733843     0.733782  Biso 1.000000     H
    H   1.0     0.733755     0.027232     0.505193  Biso 1.000000     H
    H   1.0     0.027282     0.733798     0.733784  Biso 1.000000     H
    H   1.0     0.733819     0.505180     0.027229  Biso 1.000000     H
    H   1.0     0.266194     0.494853     0.972747  Biso 1.000000     H
    H   1.0     0.494845     0.266192     0.266228  Biso 1.000000     H
    H   1.0     0.266243     0.972772     0.494833  Biso 1.000000     H
    H   1.0     0.972742     0.266221     0.266219  Biso 1.000000     H
    H   1.0     0.972777     0.494854     0.266211  Biso 1.000000     H
    H   1.0     0.266180     0.266198     0.972773  Biso 1.000000     H
    H   1.0     0.494860     0.972787     0.266158  Biso 1.000000     H
    H   1.0     0.266174     0.266254     0.494857  Biso 1.000000     H
    H   1.0     0.266225     0.494868     0.266175  Biso 1.000000     H
    H   1.0     0.972789     0.266206     0.494850  Biso 1.000000     H
    H   1.0     0.266191     0.972797     0.266199  Biso 1.000000     H
    H   1.0     0.494842     0.266202     0.972738  Biso 1.000000     H
    C   1.0     0.570707     0.570714     0.023647  Biso 1.000000     C
    C   1.0     0.614224     0.614234     0.028673  Biso 1.000000     C
    C   1.0     0.570688     0.570747     0.834974  Biso 1.000000     C
    C   1.0     0.614201     0.614250     0.742911  Biso 1.000000     C
    C   1.0     0.023657     0.834955     0.570684  Biso 1.000000     C
    C   1.0     0.028688     0.742893     0.614208  Biso 1.000000     C
    C   1.0     0.834942     0.023635     0.570706  Biso 1.000000     C
    C   1.0     0.742876     0.028675     0.614232  Biso 1.000000     C
    C   1.0     0.570707     0.023630     0.834983  Biso 1.000000     C
    C   1.0     0.614215     0.028667     0.742925  Biso 1.000000     C
    C   1.0     0.570710     0.834965     0.023652  Biso 1.000000     C
    C   1.0     0.614228     0.742911     0.028676  Biso 1.000000     C
    C   1.0     0.023611     0.570721     0.570718  Biso 1.000000     C
    C   1.0     0.028658     0.614225     0.614227  Biso 1.000000     C
    C   1.0     0.834944     0.570685     0.570734  Biso 1.000000     C
    C   1.0     0.742888     0.614205     0.614250  Biso 1.000000     C
    C   1.0     0.570724     0.834959     0.570681  Biso 1.000000     C
    C   1.0     0.614229     0.742901     0.614212  Biso 1.000000     C
    C   1.0     0.570685     0.023590     0.570771  Biso 1.000000     C
    C   1.0     0.614193     0.028640     0.614276  Biso 1.000000     C
    C   1.0     0.023654     0.570701     0.834956  Biso 1.000000     C
    C   1.0     0.028683     0.614218     0.742893  Biso 1.000000     C
    C   1.0     0.834962     0.570736     0.023614  Biso 1.000000     C
    C   1.0     0.742905     0.614249     0.028650  Biso 1.000000     C
    C   1.0     0.429297     0.429311     0.976349  Biso 1.000000     C
    C   1.0     0.385780     0.385790     0.971322  Biso 1.000000     C
    C   1.0     0.429302     0.429284     0.165048  Biso 1.000000     C
    C   1.0     0.385788     0.385780     0.257109  Biso 1.000000     C
    C   1.0     0.165053     0.976398     0.429287  Biso 1.000000     C
    C   1.0     0.257106     0.971393     0.385767  Biso 1.000000     C
    C   1.0     0.976371     0.165055     0.429303  Biso 1.000000     C
    C   1.0     0.971363     0.257109     0.385787  Biso 1.000000     C
    C   1.0     0.976344     0.429319     0.165065  Biso 1.000000     C
    C   1.0     0.971343     0.385795     0.257117  Biso 1.000000     C
    C   1.0     0.165029     0.429283     0.976407  Biso 1.000000     C
    C   1.0     0.257092     0.385776     0.971356  Biso 1.000000     C
    C   1.0     0.429330     0.976399     0.429257  Biso 1.000000     C
    C   1.0     0.385802     0.971384     0.385747  Biso 1.000000     C
    C   1.0     0.429287     0.165067     0.429329  Biso 1.000000     C
    C   1.0     0.385770     0.257125     0.385805  Biso 1.000000     C
    C   1.0     0.165047     0.429344     0.429281  Biso 1.000000     C
    C   1.0     0.257105     0.385819     0.385771  Biso 1.000000     C
    C   1.0     0.976389     0.429301     0.429296  Biso 1.000000     C
    C   1.0     0.971372     0.385782     0.385782  Biso 1.000000     C
    C   1.0     0.429287     0.976383     0.165046  Biso 1.000000     C
    C   1.0     0.385773     0.971385     0.257090  Biso 1.000000     C
    C   1.0     0.429277     0.165054     0.976371  Biso 1.000000     C
    C   1.0     0.385765     0.257111     0.971338  Biso 1.000000     C
    C   1.0     0.571293     0.700009     0.028735  Biso 1.000000     C
    C   1.0     0.699975     0.571292     0.700029  Biso 1.000000     C
    C   1.0     0.028739     0.699993     0.571280  Biso 1.000000     C
    C   1.0     0.699992     0.028725     0.700013  Biso 1.000000     C
    C   1.0     0.571276     0.028693     0.700052  Biso 1.000000     C
    C   1.0     0.700010     0.700022     0.028711  Biso 1.000000     C
    C   1.0     0.028734     0.571283     0.699998  Biso 1.000000     C
    C   1.0     0.700007     0.699985     0.571301  Biso 1.000000     C
    C   1.0     0.571280     0.700023     0.699993  Biso 1.000000     C
    C   1.0     0.699968     0.028707     0.571324  Biso 1.000000     C
    C   1.0     0.028755     0.699992     0.699984  Biso 1.000000     C
    C   1.0     0.700007     0.571309     0.028713  Biso 1.000000     C
    C   1.0     0.300001     0.428722     0.971268  Biso 1.000000     C
    C   1.0     0.428717     0.300010     0.300026  Biso 1.000000     C
    C   1.0     0.300034     0.971293     0.428703  Biso 1.000000     C
    C   1.0     0.971268     0.300024     0.300023  Biso 1.000000     C
    C   1.0     0.971283     0.428728     0.300018  Biso 1.000000     C
    C   1.0     0.299989     0.300006     0.971284  Biso 1.000000     C
    C   1.0     0.428735     0.971291     0.299985  Biso 1.000000     C
    C   1.0     0.299994     0.300044     0.428725  Biso 1.000000     C
    C   1.0     0.300016     0.428738     0.299996  Biso 1.000000     C
    C   1.0     0.971298     0.300011     0.428723  Biso 1.000000     C
    C   1.0     0.300007     0.971302     0.300003  Biso 1.000000     C
    C   1.0     0.428711     0.300015     0.971257  Biso 1.000000     C
    O   1.0     0.493205     0.611656     0.020120  Biso 1.000000     O
    O   1.0     0.611635     0.493250     0.875065  Biso 1.000000     O
    O   1.0     0.020104     0.875056     0.493191  Biso 1.000000     O
    O   1.0     0.875042     0.020085     0.611650  Biso 1.000000     O
    O   1.0     0.493223     0.020052     0.875076  Biso 1.000000     O
    O   1.0     0.611669     0.875057     0.020089  Biso 1.000000     O
    O   1.0     0.020066     0.493226     0.611667  Biso 1.000000     O
    O   1.0     0.875032     0.611646     0.493242  Biso 1.000000     O
    O   1.0     0.493208     0.875032     0.611612  Biso 1.000000     O
    O   1.0     0.611632     0.020090     0.493258  Biso 1.000000     O
    O   1.0     0.020122     0.611645     0.875044  Biso 1.000000     O
    O   1.0     0.875048     0.493236     0.020083  Biso 1.000000     O
    O   1.0     0.388344     0.506801     0.979909  Biso 1.000000     O
    O   1.0     0.506793     0.388335     0.124951  Biso 1.000000     O
    O   1.0     0.124965     0.979899     0.506799  Biso 1.000000     O
    O   1.0     0.979875     0.124983     0.388361  Biso 1.000000     O
    O   1.0     0.979934     0.506797     0.124957  Biso 1.000000     O
    O   1.0     0.124919     0.388320     0.980003  Biso 1.000000     O
    O   1.0     0.506819     0.979962     0.388312  Biso 1.000000     O
    O   1.0     0.388341     0.124960     0.506817  Biso 1.000000     O
    O   1.0     0.124945     0.506827     0.388324  Biso 1.000000     O
    O   1.0     0.979986     0.388330     0.506773  Biso 1.000000     O
    O   1.0     0.388343     0.979922     0.124954  Biso 1.000000     O
    O   1.0     0.506767     0.124958     0.979931  Biso 1.000000     O
    O   1.0     0.506791     0.388364     0.979897  Biso 1.000000     O
    O   1.0     0.388352     0.506777     0.124950  Biso 1.000000     O
    O   1.0     0.979924     0.124951     0.506795  Biso 1.000000     O
    O   1.0     0.124958     0.979966     0.388327  Biso 1.000000     O
    O   1.0     0.506782     0.979929     0.124955  Biso 1.000000     O
    O   1.0     0.388327     0.124966     0.979912  Biso 1.000000     O
    O   1.0     0.979893     0.506812     0.388359  Biso 1.000000     O
    O   1.0     0.124966     0.388403     0.506788  Biso 1.000000     O
    O   1.0     0.506790     0.124986     0.388381  Biso 1.000000     O
    O   1.0     0.388363     0.979952     0.506750  Biso 1.000000     O
    O   1.0     0.979839     0.388388     0.124987  Biso 1.000000     O
    O   1.0     0.124948     0.506790     0.979918  Biso 1.000000     O
    O   1.0     0.611658     0.493223     0.020092  Biso 1.000000     O
    O   1.0     0.493197     0.611699     0.875069  Biso 1.000000     O
    O   1.0     0.875037     0.020084     0.493213  Biso 1.000000     O
    O   1.0     0.020091     0.875052     0.611641  Biso 1.000000     O
    O   1.0     0.020090     0.493213     0.875060  Biso 1.000000     O
    O   1.0     0.875064     0.611681     0.020059  Biso 1.000000     O
    O   1.0     0.493202     0.020012     0.611717  Biso 1.000000     O
    O   1.0     0.611690     0.875066     0.493205  Biso 1.000000     O
    O   1.0     0.875040     0.493185     0.611668  Biso 1.000000     O
    O   1.0     0.020061     0.611675     0.493224  Biso 1.000000     O
    O   1.0     0.611638     0.020117     0.875072  Biso 1.000000     O
    O   1.0     0.493207     0.875052     0.020128  Biso 1.000000     O
   Cr   1.0     0.452057     0.547949     0.000004  Biso 1.000000    Cr
   Cr   1.0     0.547939     0.452067     0.000001  Biso 1.000000    Cr
   Cr   1.0    -0.000005     0.000018     0.452053  Biso 1.000000    Cr
   Cr   1.0    -0.000002    -0.000006     0.547947  Biso 1.000000    Cr
   Cr   1.0     0.452054     0.000001     0.000003  Biso 1.000000    Cr
   Cr   1.0     0.547935    -0.000004     0.000013  Biso 1.000000    Cr
   Cr   1.0     0.000002     0.452071     0.547945  Biso 1.000000    Cr
   Cr   1.0    -0.000018     0.547961     0.452067  Biso 1.000000    Cr
   Cr   1.0     0.452054    -0.000013     0.547943  Biso 1.000000    Cr
   Cr   1.0     0.547947     0.000021     0.452068  Biso 1.000000    Cr
   Cr   1.0     0.000007     0.547945    -0.000003  Biso 1.000000    Cr
   Cr   1.0    -0.000016     0.452064     0.000018  Biso 1.000000    Cr
