#======================================================================

# CRYSTAL DATA

#----------------------------------------------------------------------

data_VESTA_phase_1


_pd_phase_name                         MOF
_cell_length_a                         12.70000
_cell_length_b                         14.02900
_cell_length_c                         14.37900
_cell_angle_alpha                      89.96400
_cell_angle_beta                       90.00000
_cell_angle_gamma                      111.92700
_symmetry_space_group_name_H-M         "P 1"
_symmetry_Int_Tables_number            1

loop_
_symmetry_equiv_pos_as_xyz
   "x, y, z"

loop_
   _atom_site_label
   _atom_site_occupancy
   _atom_site_fract_x
   _atom_site_fract_y
   _atom_site_fract_z
   _atom_site_adp_type
   _atom_site_B_iso_or_equiv
   _atom_site_type_symbol
    H   1.0     0.265349     0.239228     0.875333  Biso 1.000000     H
    H   1.0     0.051110     0.929887     0.261248  Biso 1.000000     H
    H   1.0     0.268424     0.420518     0.588253  Biso 1.000000     H
    H   1.0     0.382994     0.547531     0.739497  Biso 1.000000     H
    H   1.0     0.231920     0.579254     0.588015  Biso 1.000000     H
    H   1.0     0.883001     0.547795     0.260424  Biso 1.000000     H
    H   1.0     0.047148     0.214263     0.534203  Biso 1.000000     H
    H   1.0     0.766849     0.713914     0.402957  Biso 1.000000     H
    H   1.0     0.952852     0.785692     0.465789  Biso 1.000000     H
    H   1.0     0.766895     0.087170     0.896547  Biso 1.000000     H
    H   1.0     0.280538     0.111270     0.225348  Biso 1.000000     H
    H   1.0     0.233152     0.286046     0.597033  Biso 1.000000     H
    H   1.0     0.551733     0.930141     0.738150  Biso 1.000000     H
    H   1.0     0.768081     0.420704     0.411972  Biso 1.000000     H
    H   1.0     0.773999     0.286909     0.649754  Biso 1.000000     H
    H   1.0     0.793674     0.212412     0.854404  Biso 1.000000     H
    H   1.0     0.266918     0.087237     0.103738  Biso 1.000000     H
    H   1.0     0.780892     0.111195     0.774917  Biso 1.000000     H
    H   1.0     0.040447     0.724055     0.036760  Biso 1.000000     H
    H   1.0     0.459912     0.276050     0.037193  Biso 1.000000     H
    H   1.0     0.617010     0.452431     0.260491  Biso 1.000000     H
    H   1.0     0.706404     0.787467     0.854336  Biso 1.000000     H
    H   1.0     0.740065     0.636435     0.300743  Biso 1.000000     H
    H   1.0     0.719465     0.888691     0.774637  Biso 1.000000     H
    H   1.0     0.226004     0.713055     0.350230  Biso 1.000000     H
    H   1.0     0.948891     0.070073     0.738739  Biso 1.000000     H
    H   1.0     0.240329     0.636268     0.698911  Biso 1.000000     H
    H   1.0     0.453473     0.785535     0.533843  Biso 1.000000     H
    H   1.0     0.267178     0.713736     0.596611  Biso 1.000000     H
    H   1.0     0.546531     0.214427     0.466145  Biso 1.000000     H
    H   1.0     0.732825     0.286223     0.403377  Biso 1.000000     H
    H   1.0     0.273842     0.287509     0.350209  Biso 1.000000     H
    H   1.0     0.219109     0.888763     0.225073  Biso 1.000000     H
    H   1.0     0.540093     0.723913     0.962795  Biso 1.000000     H
    H   1.0     0.117001     0.452161     0.739567  Biso 1.000000     H
    H   1.0     0.259932     0.363524     0.699243  Biso 1.000000     H
    H   1.0     0.733085     0.912721     0.896247  Biso 1.000000     H
    H   1.0     0.765411     0.239571     0.126194  Biso 1.000000     H
    H   1.0     0.233107     0.912786     0.103443  Biso 1.000000     H
    H   1.0     0.959556     0.275908     0.963225  Biso 1.000000     H
    H   1.0     0.206328     0.787545     0.145586  Biso 1.000000     H
    H   1.0     0.734653     0.760734     0.124652  Biso 1.000000     H
    H   1.0     0.726161     0.712451     0.649778  Biso 1.000000     H
    H   1.0     0.731584     0.579445     0.411732  Biso 1.000000     H
    H   1.0     0.448269     0.069819     0.261837  Biso 1.000000     H
    H   1.0     0.234593     0.760389     0.873794  Biso 1.000000     H
    H   1.0     0.293598     0.212491     0.145648  Biso 1.000000     H
    H   1.0     0.759677     0.363692     0.301076  Biso 1.000000     H
    H   1.0     0.863459     0.743819     0.797997  Biso 1.000000     H
    H   1.0     0.984651     0.803474     0.871178  Biso 1.000000     H
    H   1.0     0.994896     0.651200     0.796238  Biso 1.000000     H
    H   1.0     0.000000     0.757905     0.617543  Biso 1.000000     H
    H   1.0     0.980311     0.856301     0.758494  Biso 1.000000     H
    H   1.0     0.883456     0.647277     0.658994  Biso 1.000000     H
    H   1.0     0.018194     0.638349     0.635689  Biso 1.000000     H
    H   1.0     0.099818     0.762854     0.757996  Biso 1.000000     H
    H   1.0     0.498066     0.241706     0.618154  Biso 1.000000     H
    H   1.0     0.616077     0.352409     0.659040  Biso 1.000000     H
    H   1.0     0.400529     0.236610     0.759239  Biso 1.000000     H
    H   1.0     0.520425     0.143553     0.758819  Biso 1.000000     H
    H   1.0     0.516399     0.196104     0.871620  Biso 1.000000     H
    H   1.0     0.481119     0.361224     0.636513  Biso 1.000000     H
    H   1.0     0.637250     0.256151     0.798085  Biso 1.000000     H
    H   1.0     0.505519     0.348407     0.796899  Biso 1.000000     H
    H   1.0     0.383927     0.647551     0.340946  Biso 1.000000     H
    H   1.0     0.479580     0.856407     0.241168  Biso 1.000000     H
    H   1.0     0.518886     0.638737     0.363473  Biso 1.000000     H
    H   1.0     0.483605     0.803857     0.128367  Biso 1.000000     H
    H   1.0     0.494483     0.651553     0.203087  Biso 1.000000     H
    H   1.0     0.362754     0.743810     0.201903  Biso 1.000000     H
    H   1.0     0.501938     0.758255     0.381831  Biso 1.000000     H
    H   1.0     0.599475     0.763349     0.240747  Biso 1.000000     H
    H   1.0     0.981814     0.361611     0.364299  Biso 1.000000     H
    H   1.0     0.116551     0.352683     0.340992  Biso 1.000000     H
    H   1.0     0.019693     0.143659     0.241491  Biso 1.000000     H
    H   1.0     0.900187     0.237108     0.241992  Biso 1.000000     H
    H   1.0     0.015352     0.196486     0.128808  Biso 1.000000     H
    H   1.0     0.136545     0.256141     0.201988  Biso 1.000000     H
    H   1.0     0.005110     0.348761     0.203750  Biso 1.000000     H
    H   1.0    -0.001222     0.242054     0.382443  Biso 1.000000     H
    C   1.0     0.184842     0.841515     0.472132  Biso 1.000000     C
    C   1.0    -0.002912     0.759819     0.082223  Biso 1.000000     C
    C   1.0     0.824330     0.895807     0.264437  Biso 1.000000     C
    C   1.0     0.636096     0.698307     0.645617  Biso 1.000000     C
    C   1.0     0.363907     0.301652     0.354367  Biso 1.000000     C
    C   1.0     0.386798     0.850690     0.798571  Biso 1.000000     C
    C   1.0     0.900882     0.241529     0.585508  Biso 1.000000     C
    C   1.0     0.400469     0.241915     0.414649  Biso 1.000000     C
    C   1.0     0.186500     0.856433     0.156701  Biso 1.000000     C
    C   1.0     0.809383     0.656545     0.003353  Biso 1.000000     C
    C   1.0     0.982784     0.740215     0.419035  Biso 1.000000     C
    C   1.0     0.095048     0.557957     0.233840  Biso 1.000000     C
    C   1.0     0.000000     0.240141     0.917764  Biso 1.000000     C
    C   1.0     0.113512     0.149243     0.799711  Biso 1.000000     C
    C   1.0     0.596722     0.335264     0.364734  Biso 1.000000     C
    C   1.0     0.674498     0.219614     0.133592  Biso 1.000000     C
    C   1.0     0.495604     0.124260     0.208554  Biso 1.000000     C
    C   1.0     0.097008     0.335031     0.635511  Biso 1.000000     C
    C   1.0     0.613205     0.149268     0.201414  Biso 1.000000     C
    C   1.0     0.279188     0.647922     0.629468  Biso 1.000000     C
    C   1.0     0.017220     0.259751     0.580948  Biso 1.000000     C
    C   1.0     0.004023     0.875616     0.207824  Biso 1.000000     C
    C   1.0     0.057634     0.622399     0.299530  Biso 1.000000     C
    C   1.0     0.403283     0.664699     0.635255  Biso 1.000000     C
    C   1.0     0.902993     0.664923     0.364484  Biso 1.000000     C
    C   1.0     0.314477     0.158839     0.472224  Biso 1.000000     C
    C   1.0     0.815158     0.158436     0.527865  Biso 1.000000     C
    C   1.0     0.439278     0.169225     0.149694  Biso 1.000000     C
    C   1.0     0.720816     0.352036     0.370517  Biso 1.000000     C
    C   1.0     0.942370     0.377570     0.700449  Biso 1.000000     C
    C   1.0     0.442105     0.606132     0.695007  Biso 1.000000     C
    C   1.0     0.825505     0.780533     0.132312  Biso 1.000000     C
    C   1.0     0.691107     0.343516     0.004313  Biso 1.000000     C
    C   1.0     0.594970     0.557560     0.766286  Biso 1.000000     C
    C   1.0     0.405033     0.442399     0.233699  Biso 1.000000     C
    C   1.0     0.060604     0.830780     0.149127  Biso 1.000000     C
    C   1.0     0.099119     0.758422     0.414488  Biso 1.000000     C
    C   1.0     0.308899     0.656446     0.995676  Biso 1.000000     C
    C   1.0     0.442322     0.377971     0.299541  Biso 1.000000     C
    C   1.0     0.174498     0.219429     0.867672  Biso 1.000000     C
    C   1.0     0.175672     0.104154     0.735548  Biso 1.000000     C
    C   1.0     0.379642     0.733987     0.925831  Biso 1.000000     C
    C   1.0     0.057994     0.393533     0.695109  Biso 1.000000     C
    C   1.0     0.313362     0.143590     0.156980  Biso 1.000000     C
    C   1.0     0.778876     0.648103     0.370190  Biso 1.000000     C
    C   1.0     0.557681     0.621983     0.700439  Biso 1.000000     C
    C   1.0     0.813501     0.143524     0.843290  Biso 1.000000     C
    C   1.0     0.504399     0.875699     0.791432  Biso 1.000000     C
    C   1.0     0.939399     0.169185     0.850856  Biso 1.000000     C
    C   1.0     0.496935     0.759713     0.917127  Biso 1.000000     C
    C   1.0     0.135900     0.698788     0.354319  Biso 1.000000     C
    C   1.0     0.879826     0.734109     0.073205  Biso 1.000000     C
    C   1.0     0.864102     0.301173     0.645667  Biso 1.000000     C
    C   1.0     0.904957     0.442003     0.766149  Biso 1.000000     C
    C   1.0     0.886490     0.850717     0.200275  Biso 1.000000     C
    C   1.0     0.942010     0.606435     0.304871  Biso 1.000000     C
    C   1.0     0.483230     0.739962     0.580687  Biso 1.000000     C
    C   1.0     0.120175     0.265847     0.926783  Biso 1.000000     C
    C   1.0     0.674811     0.103993     0.265965  Biso 1.000000     C
    C   1.0     0.620362     0.265972     0.074155  Biso 1.000000     C
    C   1.0     0.325505     0.780347     0.866396  Biso 1.000000     C
    C   1.0     0.325191     0.895967     0.734022  Biso 1.000000     C
    C   1.0     0.560727     0.830739     0.850295  Biso 1.000000     C
    C   1.0     0.685527     0.841129     0.527769  Biso 1.000000     C
    C   1.0     0.995978     0.124342     0.792164  Biso 1.000000     C
    C   1.0     0.599536     0.758054     0.585346  Biso 1.000000     C
    C   1.0     0.686641     0.856369     0.843004  Biso 1.000000     C
    C   1.0     0.503069     0.240248     0.082860  Biso 1.000000     C
    C   1.0     0.557898     0.393824     0.304975  Biso 1.000000     C
    C   1.0     0.190624     0.343420     0.996626  Biso 1.000000     C
    C   1.0     0.516772     0.259994     0.419296  Biso 1.000000     C
    C   1.0     0.221127     0.351861     0.629794  Biso 1.000000     C
    C   1.0     0.955495     0.785335     0.799388  Biso 1.000000     C
    C   1.0     0.975635     0.688519     0.660432  Biso 1.000000     C
    C   1.0     0.523919     0.311103     0.660962  Biso 1.000000     C
    C   1.0     0.545258     0.214430     0.799759  Biso 1.000000     C
    C   1.0     0.454746     0.785530     0.200228  Biso 1.000000     C
    C   1.0     0.476085     0.688857     0.339025  Biso 1.000000     C
    C   1.0     0.044509     0.214626     0.200598  Biso 1.000000     C
    C   1.0     0.024372     0.311441     0.339554  Biso 1.000000     C
    N   1.0     0.011573     0.719010     0.758119  Biso 1.000000     N
    N   1.0     0.488750     0.280621     0.758823  Biso 1.000000     N
    N   1.0     0.511254     0.719339     0.241163  Biso 1.000000     N
    N   1.0     0.988432     0.280950     0.241868  Biso 1.000000     N
    O   1.0     0.711613     0.142150     0.535240  Biso 1.000000     O
    O   1.0     0.520590     0.483227     0.808229  Biso 1.000000     O
    O   1.0     0.293487     0.358048     0.006265  Biso 1.000000     O
    O   1.0     0.979265     0.516462     0.807908  Biso 1.000000     O
    O   1.0     0.205949     0.641768     0.004695  Biso 1.000000     O
    O   1.0     0.860729     0.607250     0.956081  Biso 1.000000     O
    O   1.0     0.880528     0.963518     0.324866  Biso 1.000000     O
    O   1.0     0.788996     0.857191     0.535358  Biso 1.000000     O
    O   1.0     0.211008     0.142766     0.464624  Biso 1.000000     O
    O   1.0     0.639980     0.392640     0.956516  Biso 1.000000     O
    O   1.0     0.797161     0.416940     0.777041  Biso 1.000000     O
    O   1.0     0.702760     0.582582     0.777067  Biso 1.000000     O
    O   1.0     0.782086     0.133197     0.261507  Biso 1.000000     O
    O   1.0     0.282682     0.132489     0.741482  Biso 1.000000     O
    O   1.0     0.618118     0.035211     0.325392  Biso 1.000000     O
    O   1.0     0.119474     0.036444     0.675118  Biso 1.000000     O
    O   1.0     0.288390     0.857817     0.464741  Biso 1.000000     O
    O   1.0     0.202844     0.583019     0.222951  Biso 1.000000     O
    O   1.0     0.217917     0.866768     0.738484  Biso 1.000000     O
    O   1.0     0.857426     0.108439     0.472399  Biso 1.000000     O
    O   1.0     0.717320     0.867474     0.258501  Biso 1.000000     O
    O   1.0     0.643588     0.891335     0.472205  Biso 1.000000     O
    O   1.0     0.706527     0.641931     0.993690  Biso 1.000000     O
    O   1.0     0.356415     0.108621     0.527776  Biso 1.000000     O
    O   1.0     0.381885     0.964754     0.674599  Biso 1.000000     O
    O   1.0     0.142577     0.891530     0.527582  Biso 1.000000     O
    O   1.0     0.139284     0.392716     0.043902  Biso 1.000000     O
    O   1.0     0.479413     0.516735     0.191760  Biso 1.000000     O
    O   1.0     0.360027     0.607327     0.043476  Biso 1.000000     O
    O   1.0     0.020740     0.483495     0.192083  Biso 1.000000     O
    O   1.0     0.794059     0.358201     0.995302  Biso 1.000000     O
    O   1.0     0.297243     0.417378     0.222919  Biso 1.000000     O
    K   1.0     0.500004     0.499986    -0.000002  Biso 1.000000     K
    K   1.0     0.000003    -0.000003     0.499993  Biso 1.000000     K
    K   1.0     0.500003    -0.000003     0.499994  Biso 1.000000     K
    K   1.0     0.000001     0.499983    -0.000000  Biso 1.000000     K
   Zn   1.0     0.249677    -0.000135     0.613384  Biso 1.000000    Zn
   Zn   1.0     0.249774     0.500025     0.128128  Biso 1.000000    Zn
   Zn   1.0     0.750232     0.499938     0.871860  Biso 1.000000    Zn
   Zn   1.0     0.750331     0.000131     0.386603  Biso 1.000000    Zn
