#======================================================================

# CRYSTAL DATA

#----------------------------------------------------------------------

data_VESTA_phase_1


_pd_phase_name                         MOF
_cell_length_a                         13.22000
_cell_length_b                         14.12600
_cell_length_c                         14.41300
_cell_angle_alpha                      89.97400
_cell_angle_beta                       89.97100
_cell_angle_gamma                      111.87400
_symmetry_space_group_name_H-M         "P 1"
_symmetry_Int_Tables_number            1

loop_
_symmetry_equiv_pos_as_xyz
   "x, y, z"

loop_
   _atom_site_label
   _atom_site_occupancy
   _atom_site_fract_x
   _atom_site_fract_y
   _atom_site_fract_z
   _atom_site_adp_type
   _atom_site_B_iso_or_equiv
   _atom_site_type_symbol
    H   1.0     0.230150     0.257622     0.881035  Biso 1.000000     H
    H   1.0     0.291374     0.586262     0.107710  Biso 1.000000     H
    H   1.0     0.307193     0.617070     0.227684  Biso 1.000000     H
    H   1.0     0.708653     0.413775     0.892289  Biso 1.000000     H
    H   1.0     0.285641     0.214354     0.594574  Biso 1.000000     H
    H   1.0     0.473161     0.775538     0.034784  Biso 1.000000     H
    H   1.0     0.185109     0.287166     0.143413  Biso 1.000000     H
    H   1.0     0.806912     0.617438     0.772816  Biso 1.000000     H
    H   1.0     0.749560     0.080030     0.412590  Biso 1.000000     H
    H   1.0     0.030987     0.423728     0.261235  Biso 1.000000     H
    H   1.0     0.814923     0.712848     0.856573  Biso 1.000000     H
    H   1.0     0.969052     0.576294     0.738771  Biso 1.000000     H
    H   1.0     0.749608     0.919363     0.413065  Biso 1.000000     H
    H   1.0     0.973622     0.775842     0.965229  Biso 1.000000     H
    H   1.0     0.239963     0.862168     0.697906  Biso 1.000000     H
    H   1.0     0.274026     0.789263     0.354871  Biso 1.000000     H
    H   1.0     0.193113     0.382545     0.227202  Biso 1.000000     H
    H   1.0     0.250470     0.080691     0.586883  Biso 1.000000     H
    H   1.0     0.250495     0.920002     0.587441  Biso 1.000000     H
    H   1.0     0.791262     0.586831     0.892868  Biso 1.000000     H
    H   1.0     0.530236     0.423602     0.738580  Biso 1.000000     H
    H   1.0     0.896159     0.045300     0.265742  Biso 1.000000     H
    H   1.0     0.026402     0.224168     0.034785  Biso 1.000000     H
    H   1.0     0.314852     0.712280     0.143724  Biso 1.000000     H
    H   1.0     0.215298     0.786345     0.595426  Biso 1.000000     H
    H   1.0     0.037032     0.715201     0.532831  Biso 1.000000     H
    H   1.0     0.784765     0.213684     0.404564  Biso 1.000000     H
    H   1.0     0.603678     0.954192     0.266040  Biso 1.000000     H
    H   1.0     0.464293     0.285600     0.532402  Biso 1.000000     H
    H   1.0     0.760092     0.137825     0.302106  Biso 1.000000     H
    H   1.0     0.739417     0.861356     0.302784  Biso 1.000000     H
    H   1.0     0.269551     0.741459     0.880529  Biso 1.000000     H
    H   1.0     0.774698     0.789714     0.644907  Biso 1.000000     H
    H   1.0     0.769880     0.742396     0.118959  Biso 1.000000     H
    H   1.0     0.692839     0.382921     0.772324  Biso 1.000000     H
    H   1.0     0.726032     0.210760     0.645128  Biso 1.000000     H
    H   1.0     0.225359     0.210300     0.355124  Biso 1.000000     H
    H   1.0     0.103904     0.954711     0.734276  Biso 1.000000     H
    H   1.0     0.535769     0.714429     0.467598  Biso 1.000000     H
    H   1.0     0.730484     0.258579     0.119474  Biso 1.000000     H
    H   1.0     0.208770     0.413197     0.107161  Biso 1.000000     H
    H   1.0     0.526862     0.224478     0.965225  Biso 1.000000     H
    H   1.0     0.963019     0.284818     0.467178  Biso 1.000000     H
    H   1.0     0.714421     0.785691     0.405457  Biso 1.000000     H
    H   1.0     0.260618     0.138612     0.697202  Biso 1.000000     H
    H   1.0     0.685184     0.287745     0.856319  Biso 1.000000     H
    H   1.0     0.469801     0.576413     0.261425  Biso 1.000000     H
    H   1.0     0.396378     0.045833     0.733958  Biso 1.000000     H
    H   1.0     0.636767     0.754225     0.793562  Biso 1.000000     H
    H   1.0     0.513670     0.849376     0.793380  Biso 1.000000     H
    H   1.0     0.524508     0.699861     0.871767  Biso 1.000000     H
    H   1.0     0.490978     0.734243     0.618416  Biso 1.000000     H
    H   1.0     0.408651     0.738478     0.762028  Biso 1.000000     H
    H   1.0     0.521040     0.642102     0.760728  Biso 1.000000     H
    H   1.0     0.482878     0.856543     0.634994  Biso 1.000000     H
    H   1.0     0.610687     0.842227     0.652318  Biso 1.000000     H
    H   1.0     0.014850     0.849550     0.206218  Biso 1.000000     H
    H   1.0     0.137556     0.753930     0.206088  Biso 1.000000     H
    H   1.0     0.909714     0.738970     0.237826  Biso 1.000000     H
    H   1.0     0.111752     0.842714     0.347237  Biso 1.000000     H
    H   1.0     0.025139     0.699678     0.128161  Biso 1.000000     H
    H   1.0     0.021602     0.642087     0.239333  Biso 1.000000     H
    H   1.0     0.983820     0.856750     0.364652  Biso 1.000000     H
    H   1.0    -0.007793     0.734607     0.381418  Biso 1.000000     H
    H   1.0     0.000000     0.265401     0.618591  Biso 1.000000     H
    H   1.0     0.888293     0.157295     0.652777  Biso 1.000000     H
    H   1.0     0.016224     0.143258     0.635362  Biso 1.000000     H
    H   1.0     0.985206     0.150466     0.793793  Biso 1.000000     H
    H   1.0     0.978440     0.357924     0.760680  Biso 1.000000     H
    H   1.0     0.862488     0.246077     0.793921  Biso 1.000000     H
    H   1.0     0.090334     0.261051     0.762181  Biso 1.000000     H
    H   1.0     0.974902     0.300331     0.871851  Biso 1.000000     H
    H   1.0     0.363270     0.245785     0.206452  Biso 1.000000     H
    H   1.0     0.486392     0.150665     0.206628  Biso 1.000000     H
    H   1.0     0.509085     0.265798     0.381590  Biso 1.000000     H
    H   1.0     0.517196     0.143503     0.365008  Biso 1.000000     H
    H   1.0     0.475517     0.300162     0.128237  Biso 1.000000     H
    H   1.0     0.591402     0.261576     0.237970  Biso 1.000000     H
    H   1.0     0.389379     0.157807     0.347692  Biso 1.000000     H
    H   1.0     0.478985     0.357924     0.239274  Biso 1.000000     H
    C   1.0     0.516256     0.741507     0.080233  Biso 1.000000     C
    C   1.0     0.399536     0.944142     0.239769  Biso 1.000000     C
    C   1.0     0.542746     0.327621     0.851268  Biso 1.000000     C
    C   1.0     0.682787     0.722797     0.127962  Biso 1.000000     C
    C   1.0     0.687265     0.339633     0.524665  Biso 1.000000     C
    C   1.0     0.203819     0.851739     0.628223  Biso 1.000000     C
    C   1.0     0.395600     0.742950     0.418021  Biso 1.000000     C
    C   1.0     0.492844     0.239644     0.578319  Biso 1.000000     C
    C   1.0     0.688443     0.610885     0.260760  Biso 1.000000     C
    C   1.0     0.546781     0.895072     0.309575  Biso 1.000000     C
    C   1.0     0.628697     0.767293     0.069143  Biso 1.000000     C
    C   1.0     0.957158     0.672588     0.851356  Biso 1.000000     C
    C   1.0     0.047226     0.895642     0.690660  Biso 1.000000     C
    C   1.0     0.513623     0.629462     0.207005  Biso 1.000000     C
    C   1.0     0.042873     0.327425     0.148655  Biso 1.000000     C
    C   1.0     0.185913     0.338977     0.475276  Biso 1.000000     C
    C   1.0     0.138862     0.196458     0.358816  Biso 1.000000     C
    C   1.0     0.936149     0.879913     0.695446  Biso 1.000000     C
    C   1.0     0.336293     0.645688     0.157977  Biso 1.000000     C
    C   1.0     0.899504     0.944387     0.760040  Biso 1.000000     C
    C   1.0     0.952838     0.104378     0.309351  Biso 1.000000     C
    C   1.0     0.416006     0.164470     0.632291  Biso 1.000000     C
    C   1.0     0.486411     0.370552     0.792997  Biso 1.000000     C
    C   1.0     0.125728     0.653795     0.802297  Biso 1.000000     C
    C   1.0     0.128815     0.767016     0.930542  Biso 1.000000     C
    C   1.0     0.626323     0.654367     0.197507  Biso 1.000000     C
    C   1.0     0.008243     0.761091     0.578611  Biso 1.000000     C
    C   1.0     0.564333     0.120587     0.695450  Biso 1.000000     C
    C   1.0     0.836188     0.646146     0.842412  Biso 1.000000     C
    C   1.0     0.483769     0.258507     0.919771  Biso 1.000000     C
    C   1.0     0.435725     0.879444     0.304556  Biso 1.000000     C
    C   1.0     0.915259     0.163789     0.367325  Biso 1.000000     C
    C   1.0     0.805185     0.157909     0.997592  Biso 1.000000     C
    C   1.0     0.371329     0.232726     0.930861  Biso 1.000000     C
    C   1.0     0.182504     0.722179     0.871653  Biso 1.000000     C
    C   1.0     0.871213     0.233005     0.069470  Biso 1.000000     C
    C   1.0     0.861198     0.803573     0.641196  Biso 1.000000     C
    C   1.0     0.305702     0.157308     0.002762  Biso 1.000000     C
    C   1.0     0.453274     0.104947     0.690417  Biso 1.000000     C
    C   1.0     0.312798     0.660397     0.475343  Biso 1.000000     C
    C   1.0     0.600516     0.055885     0.760236  Biso 1.000000     C
    C   1.0     0.194842     0.842114     0.002418  Biso 1.000000     C
    C   1.0     0.163842     0.353862     0.157599  Biso 1.000000     C
    C   1.0     0.663738     0.354328     0.842037  Biso 1.000000     C
    C   1.0     0.507215     0.760378     0.421676  Biso 1.000000     C
    C   1.0     0.694322     0.842723     0.997249  Biso 1.000000     C
    C   1.0     0.796239     0.148277     0.371789  Biso 1.000000     C
    C   1.0     0.016417     0.741627     0.919680  Biso 1.000000     C
    C   1.0     0.297015     0.148986     0.627574  Biso 1.000000     C
    C   1.0     0.311597     0.389142     0.739242  Biso 1.000000     C
    C   1.0     0.584052     0.835554     0.367705  Biso 1.000000     C
    C   1.0     0.817530     0.277853     0.128353  Biso 1.000000     C
    C   1.0     0.103427     0.256438     0.417932  Biso 1.000000     C
    C   1.0     0.084799     0.836226     0.632687  Biso 1.000000     C
    C   1.0     0.317242     0.277217     0.872033  Biso 1.000000     C
    C   1.0     0.896625     0.743574     0.582094  Biso 1.000000     C
    C   1.0     0.814138     0.661034     0.524751  Biso 1.000000     C
    C   1.0     0.100570     0.055622     0.240002  Biso 1.000000     C
    C   1.0     0.983611     0.258386     0.080332  Biso 1.000000     C
    C   1.0     0.874310     0.346240     0.197707  Biso 1.000000     C
    C   1.0     0.000000     0.629324     0.793026  Biso 1.000000     C
    C   1.0     0.373710     0.345648     0.802491  Biso 1.000000     C
    C   1.0     0.360495     0.803046     0.358719  Biso 1.000000     C
    C   1.0     0.187378     0.609656     0.739160  Biso 1.000000     C
    C   1.0     0.991811     0.238933     0.421396  Biso 1.000000     C
    C   1.0    -0.013090     0.370698     0.206981  Biso 1.000000     C
    C   1.0     0.063912     0.120092     0.304588  Biso 1.000000     C
    C   1.0     0.703043     0.851038     0.372418  Biso 1.000000     C
    C   1.0     0.457283     0.672392     0.148737  Biso 1.000000     C
    C   1.0     0.812672     0.390400     0.260836  Biso 1.000000     C
    C   1.0     0.639561     0.196963     0.641268  Biso 1.000000     C
    C   1.0     0.604460     0.257079     0.581984  Biso 1.000000     C
    C   1.0     0.522014     0.804859     0.658686  Biso 1.000000     C
    C   1.0     0.548312     0.714393     0.798850  Biso 1.000000     C
    C   1.0     0.023097     0.805191     0.341002  Biso 1.000000     C
    C   1.0     0.049066     0.714315     0.201011  Biso 1.000000     C
    C   1.0     0.950977     0.285695     0.799000  Biso 1.000000     C
    C   1.0     0.976948     0.194818     0.659010  Biso 1.000000     C
    C   1.0     0.478052     0.195182     0.341320  Biso 1.000000     C
    C   1.0     0.451721     0.285631     0.201156  Biso 1.000000     C
    N   1.0     0.493619     0.779757     0.758059  Biso 1.000000     N
    N   1.0     0.994738     0.779999     0.241698  Biso 1.000000     N
    N   1.0     0.005311     0.220016     0.758313  Biso 1.000000     N
    N   1.0     0.506437     0.220285     0.241946  Biso 1.000000     N
    O   1.0     0.791949     0.854727     0.984318  Biso 1.000000     O
    O   1.0     0.209079     0.358926     0.745866  Biso 1.000000     O
    O   1.0     0.710190     0.360673     0.254391  Biso 1.000000     O
    O   1.0     0.854128     0.106913     0.952656  Biso 1.000000     O
    O   1.0     0.145894     0.893102     0.047359  Biso 1.000000     O
    O   1.0     0.970858     0.019031     0.800906  Biso 1.000000     O
    O   1.0     0.352239     0.608516     0.529388  Biso 1.000000     O
    O   1.0     0.029225     0.981004     0.199097  Biso 1.000000     O
    O   1.0     0.471205     0.019130     0.199452  Biso 1.000000     O
    O   1.0     0.296200     0.918530     0.227990  Biso 1.000000     O
    O   1.0     0.528841     0.980902     0.800553  Biso 1.000000     O
    O   1.0     0.289863     0.639415     0.745592  Biso 1.000000     O
    O   1.0     0.854043     0.609690     0.470498  Biso 1.000000     O
    O   1.0     0.284991     0.353721     0.468536  Biso 1.000000     O
    O   1.0     0.644921     0.893134     0.952126  Biso 1.000000     O
    O   1.0     0.213845     0.646217     0.468638  Biso 1.000000     O
    O   1.0     0.707895     0.146916     0.984565  Biso 1.000000     O
    O   1.0     0.208083     0.145327     0.015701  Biso 1.000000     O
    O   1.0     0.796078     0.919109     0.771107  Biso 1.000000     O
    O   1.0     0.786213     0.353791     0.531356  Biso 1.000000     O
    O   1.0     0.634959     0.542448     0.320717  Biso 1.000000     O
    O   1.0     0.133455     0.541041     0.679571  Biso 1.000000     O
    O   1.0     0.647825     0.391506     0.470611  Biso 1.000000     O
    O   1.0     0.715062     0.646301     0.531473  Biso 1.000000     O
    O   1.0     0.365085     0.457580     0.679287  Biso 1.000000     O
    O   1.0     0.355094     0.106880     0.047875  Biso 1.000000     O
    O   1.0     0.146012     0.390339     0.529510  Biso 1.000000     O
    O   1.0     0.866603     0.459008     0.320429  Biso 1.000000     O
    O   1.0     0.703852     0.081461     0.771984  Biso 1.000000     O
    O   1.0     0.203998     0.080902     0.228943  Biso 1.000000     O
    O   1.0     0.790960     0.641105     0.254133  Biso 1.000000     O
    O   1.0     0.292137     0.853123     0.015435  Biso 1.000000     O
   Zn   1.0     0.249644    -0.000119     0.132776  Biso 1.000000    Zn
   Zn   1.0     0.750989     0.500972     0.386468  Biso 1.000000    Zn
   Zn   1.0     0.249059     0.499067     0.613535  Biso 1.000000    Zn
   Zn   1.0     0.750391     0.000141     0.867233  Biso 1.000000    Zn
   Rb   1.0    -0.000002     0.000017     0.000010  Biso 1.000000    Rb
   Rb   1.0     0.500026     0.500011     0.500006  Biso 1.000000    Rb
   Rb   1.0     0.000010     0.500011     0.499998  Biso 1.000000    Rb
   Rb   1.0     0.500010     0.000017    -0.000001  Biso 1.000000    Rb
