#======================================================================

# CRYSTAL DATA

#----------------------------------------------------------------------

data_VESTA_phase_1


_pd_phase_name                         MOF
_cell_length_a                         14.36600
_cell_length_b                         14.36600
_cell_length_c                         22.00400
_cell_angle_alpha                      102.49800
_cell_angle_beta                       102.49800
_cell_angle_gamma                      109.70000
_symmetry_space_group_name_H-M         "P 1"
_symmetry_Int_Tables_number            1

loop_
_symmetry_equiv_pos_as_xyz
   "x, y, z"

loop_
   _atom_site_label
   _atom_site_occupancy
   _atom_site_fract_x
   _atom_site_fract_y
   _atom_site_fract_z
   _atom_site_adp_type
   _atom_site_B_iso_or_equiv
   _atom_site_type_symbol
    H   1.0     0.118422     0.808174     0.857278  Biso 1.000000     H
    H   1.0     0.889480     0.359243     0.394568  Biso 1.000000     H
    H   1.0     0.233757     0.754904     0.053092  Biso 1.000000     H
    H   1.0     0.489250     0.968553     0.614867  Biso 1.000000     H
    H   1.0    -0.050805     0.843300     0.607173  Biso 1.000000     H
    H   1.0     0.825987     0.163376     0.350736  Biso 1.000000     H
    H   1.0     0.000000     0.121479     0.615722  Biso 1.000000     H
    H   1.0     0.001225     0.000000     0.108793  Biso 1.000000     H
    H   1.0     0.721085     0.939707     0.659325  Biso 1.000000     H
    H   1.0     0.262528     0.918426     0.250559  Biso 1.000000     H
    H   1.0     0.315220     0.889732     0.901347  Biso 1.000000     H
    H   1.0     0.673167     0.401367     0.705567  Biso 1.000000     H
    H   1.0     0.956172     0.357070     0.757300  Biso 1.000000     H
    H   1.0     0.447613     0.511922     0.392769  Biso 1.000000     H
    H   1.0     0.595851     0.238391     0.607132  Biso 1.000000     H
    H   1.0     0.651846     0.739032     0.052339  Biso 1.000000     H
    H   1.0     0.806029     0.023857     0.198761  Biso 1.000000     H
    H   1.0     0.401336     0.872720     0.000000  Biso 1.000000     H
    H   1.0     0.880720     0.194479     0.659521  Biso 1.000000     H
    H   1.0     0.674209     0.522639     0.856041  Biso 1.000000     H
    H   1.0     0.338049     0.654496     0.198995  Biso 1.000000     H
    H   1.0     0.871502     0.014939     0.100490  Biso 1.000000     H
    H   1.0     0.469228     0.664677     0.349450  Biso 1.000000     H
    H   1.0     0.718636     0.716849     0.558855  Biso 1.000000     H
    H   1.0     0.742817     0.874439     0.756921  Biso 1.000000     H
    H   1.0     0.174576     0.565502     0.100525  Biso 1.000000     H
    H   1.0     0.819446     0.773017     0.250038  Biso 1.000000     H
    H   1.0     0.576302     0.541093     0.500464  Biso 1.000000     H
    H   1.0     0.540942     0.606276     0.000000  Biso 1.000000     H
    H   1.0     0.885457     0.763063     0.152480  Biso 1.000000     H
    H   1.0     0.866643     0.436180     0.501938  Biso 1.000000     H
    H   1.0     0.782290     0.317500     0.559479  Biso 1.000000     H
    H   1.0     0.939337     0.545533     0.107936  Biso 1.000000     H
    H   1.0     0.520889     0.483333     0.899548  Biso 1.000000     H
    H   1.0    -0.030196     0.778387     0.705458  Biso 1.000000     H
    H   1.0     0.099358     0.831309     0.152690  Biso 1.000000     H
    H   1.0     0.773192     0.417742     0.912394  Biso 1.000000     H
    H   1.0     0.229136     0.266406     0.454070  Biso 1.000000     H
    H   1.0     0.141742     0.959388     0.814168  Biso 1.000000     H
    H   1.0     0.458506     0.014698     0.398054  Biso 1.000000     H
    H   1.0     0.081133     0.547069     0.510986  Biso 1.000000     H
    H   1.0     0.406826     0.376977     0.005777  Biso 1.000000     H
    H   1.0     0.371474     0.442161     0.512461  Biso 1.000000     H
    H   1.0     0.685235     0.064817     0.762359  Biso 1.000000     H
    H   1.0     0.977958     0.204869     0.307470  Biso 1.000000     H
    H   1.0     0.478538     0.318575     0.663477  Biso 1.000000     H
    H   1.0     0.426876     0.499919     0.113379  Biso 1.000000     H
    H   1.0     0.848407     0.151934     0.860227  Biso 1.000000     H
    H   1.0    -0.120844     0.861778     0.397203  Biso 1.000000     H
    H   1.0     0.165479     0.665751     0.453444  Biso 1.000000     H
    H   1.0     0.351909     0.744862     0.405787  Biso 1.000000     H
    H   1.0     0.273555     0.460610     0.156885  Biso 1.000000     H
    H   1.0     0.008431     0.437707     0.904981  Biso 1.000000     H
    H   1.0     0.274592     0.581884     0.307353  Biso 1.000000     H
    H   1.0     0.946545    -0.021413     0.904132  Biso 1.000000     H
    H   1.0     0.226681     0.043552     0.353601  Biso 1.000000     H
    H   1.0     0.128329     0.210230     0.762889  Biso 1.000000     H
    H   1.0     0.062316     0.220186     0.860446  Biso 1.000000     H
    H   1.0     0.998570     0.139956     0.405754  Biso 1.000000     H
    H   1.0     0.714008     0.228348     0.959828  Biso 1.000000     H
    H   1.0     0.829340     0.175075     0.155643  Biso 1.000000     H
    H   1.0     0.295925     0.244218     0.960588  Biso 1.000000     H
    H   1.0     0.546427     0.110537     0.004211  Biso 1.000000     H
    H   1.0     0.121778     0.819871     0.662187  Biso 1.000000     H
    H   1.0     0.076266     0.968307     0.912438  Biso 1.000000     H
    H   1.0     0.067038     0.788772     0.353399  Biso 1.000000     H
    H   1.0     0.204948     0.108822     0.256006  Biso 1.000000     H
    H   1.0     0.500158     0.471331     0.620156  Biso 1.000000     H
    H   1.0     0.058295     0.624005     0.618357  Biso 1.000000     H
    H   1.0    -0.008413     0.626182     0.255620  Biso 1.000000     H
    H   1.0     0.609716     0.328748     0.813925  Biso 1.000000     H
    H   1.0     0.632541     0.093523     0.111574  Biso 1.000000     H
    C   1.0     0.864081     0.483646     0.796598  Biso 1.000000     C
    C   1.0     0.836670     0.894513     0.628802  Biso 1.000000     C
    C   1.0     0.129555     0.694161     0.122211  Biso 1.000000     C
    C   1.0     0.072676     0.681689     0.000000  Biso 1.000000     C
    C   1.0     0.581746     0.604543     0.479830  Biso 1.000000     C
    C   1.0     0.854002     0.310099     0.421735  Biso 1.000000     C
    C   1.0     0.254897     0.785819     0.000000  Biso 1.000000     C
    C   1.0     0.521655     0.671714     0.395855  Biso 1.000000     C
    C   1.0     0.593394     0.551172     0.926922  Biso 1.000000     C
    C   1.0     0.779764     0.721149     0.991545  Biso 1.000000     C
    C   1.0     0.819208     0.202071     0.397048  Biso 1.000000     C
    C   1.0     0.788346     0.868235     0.723738  Biso 1.000000     C
    C   1.0     0.843196     0.811728     0.163106  Biso 1.000000     C
    C   1.0     0.770242     0.932299     0.133466  Biso 1.000000     C
    C   1.0     0.309105     0.791089     0.230121  Biso 1.000000     C
    C   1.0     0.316699     0.839547     0.987774  Biso 1.000000     C
    C   1.0     0.510456     0.587983     0.420272  Biso 1.000000     C
    C   1.0     0.698830     0.705709     0.000000  Biso 1.000000     C
    C   1.0     0.707667     0.100220     0.513535  Biso 1.000000     C
    C   1.0     0.604906     0.619328     0.986429  Biso 1.000000     C
    C   1.0     0.195306     0.642852     0.133631  Biso 1.000000     C
    C   1.0     0.285217     0.692209     0.187784  Biso 1.000000     C
    C   1.0     0.405029     0.842984     0.289958  Biso 1.000000     C
    C   1.0     0.661519     0.703002     0.512855  Biso 1.000000     C
    C   1.0     0.242210     0.841310     0.217301  Biso 1.000000     C
    C   1.0     0.716108     0.887579     0.289451  Biso 1.000000     C
    C   1.0     0.160906     0.804380     0.903589  Biso 1.000000     C
    C   1.0     0.674665     0.265759     0.640278  Biso 1.000000     C
    C   1.0     0.880845     0.810603     0.000000  Biso 1.000000     C
    C   1.0     0.818690     0.388005     0.736802  Biso 1.000000     C
    C   1.0     0.877521     0.330068     0.724025  Biso 1.000000     C
    C   1.0     0.841234     0.352223     0.481102  Biso 1.000000     C
    C   1.0     0.632099     0.018134     0.574185  Biso 1.000000     C
    C   1.0     0.717625     0.355468     0.694422  Biso 1.000000     C
    C   1.0     0.734218     0.936798     0.187514  Biso 1.000000     C
    C   1.0     0.806650     0.817076     0.216889  Biso 1.000000     C
    C   1.0     0.667276     0.783206     0.485192  Biso 1.000000     C
    C   1.0     0.874170     0.787133     0.796356  Biso 1.000000     C
    C   1.0     0.152089     0.793125     0.163371  Biso 1.000000     C
    C   1.0     0.749309     0.888995     0.513469  Biso 1.000000     C
    C   1.0     0.859894     0.823018     0.736577  Biso 1.000000     C
    C   1.0     0.752468     0.880010     0.229723  Biso 1.000000     C
    C   1.0    -0.058090     0.576458     0.067314  Biso 1.000000     C
    C   1.0     0.824743     0.869741     0.122054  Biso 1.000000     C
    C   1.0     0.998764     0.069632     0.574794  Biso 1.000000     C
    C   1.0    -0.046100     0.933341     0.067937  Biso 1.000000     C
    C   1.0     0.776492     0.904377     0.669929  Biso 1.000000     C
    C   1.0     0.734564     0.209008     0.628892  Biso 1.000000     C
    C   1.0     0.907793     0.848970     0.640210  Biso 1.000000     C
    C   1.0     0.918711     0.813203     0.694279  Biso 1.000000     C
    C   1.0     0.835787     0.240267     0.670130  Biso 1.000000     C
    C   1.0     0.761707     0.178355     0.485755  Biso 1.000000     C
    C   1.0     0.677488     0.572129     0.902406  Biso 1.000000     C
    C   1.0     0.146280     0.743360     0.992161  Biso 1.000000     C
    C   1.0     0.794271     0.286051     0.513659  Biso 1.000000     C
    C   1.0     0.269495     0.849139     0.928409  Biso 1.000000     C
    C   1.0     0.186057     0.804894     0.527168  Biso 1.000000     C
    C   1.0     0.705553     0.141933     0.795617  Biso 1.000000     C
    C   1.0     0.692867     0.197432    -0.007282  Biso 1.000000     C
    C   1.0     0.752459     0.340391     0.879288  Biso 1.000000     C
    C   1.0     0.818213     0.289084     0.890705  Biso 1.000000     C
    C   1.0     0.093768     0.673148     0.591189  Biso 1.000000     C
    C   1.0     0.437315     0.395271     0.592654  Biso 1.000000     C
    C   1.0     0.123024     0.113503     0.890871  Biso 1.000000     C
    C   1.0     0.875090     0.301555    -0.006853  Biso 1.000000     C
    C   1.0     0.662547     0.291034     0.825136  Biso 1.000000     C
    C   1.0     0.153497     0.697199     0.499264  Biso 1.000000     C
    C   1.0     0.342862     0.363924     0.026498  Biso 1.000000     C
    C   1.0     0.286252     0.280252     0.500069  Biso 1.000000     C
    C   1.0     0.171274     0.078882     0.342998  Biso 1.000000     C
    C   1.0     0.104579     0.171522     0.849821  Biso 1.000000     C
    C   1.0     0.168004     0.262100     0.021382  Biso 1.000000     C
    C   1.0     0.066924     0.172645    -0.006759  Biso 1.000000     C
    C   1.0     0.083677     0.499607     0.216322  Biso 1.000000     C
    C   1.0     0.111970     0.742983     0.342792  Biso 1.000000     C
    C   1.0     0.177530     0.050949     0.879462  Biso 1.000000     C
    C   1.0     0.426112     0.311539     0.617070  Biso 1.000000     C
    C   1.0     0.213196     0.774245     0.384027  Biso 1.000000     C
    C   1.0     0.198457     0.094261     0.499457  Biso 1.000000     C
    C   1.0     0.231663     0.095663     0.723476  Biso 1.000000     C
    C   1.0     0.248939     0.277541    -0.006374  Biso 1.000000     C
    C   1.0     0.128560     0.781177     0.615875  Biso 1.000000     C
    C   1.0     0.240092     0.883030     0.499387  Biso 1.000000     C
    C   1.0     0.070237     0.653182     0.288896  Biso 1.000000     C
    C   1.0     0.631064     0.143707     0.025146  Biso 1.000000     C
    C   1.0     0.039972     0.134288     0.372717  Biso 1.000000     C
    C   1.0     0.213555     0.046449     0.825415  Biso 1.000000     C
    C   1.0     0.129068     0.595245     0.276120  Biso 1.000000     C
    C   1.0     0.273093     0.717491     0.372643  Biso 1.000000     C
    C   1.0     0.638658     0.192153     0.782799  Biso 1.000000     C
    C   1.0     0.195307     0.103237     0.783205  Biso 1.000000     C
    C   1.0     0.678267     0.134114     0.084511  Biso 1.000000     C
    C   1.0     0.315657     0.965114     0.438735  Biso 1.000000     C
    C   1.0     0.786856     0.178870     0.109331  Biso 1.000000     C
    C   1.0     0.000000     0.406781     0.945603  Biso 1.000000     C
    C   1.0     0.366026     0.378710     0.533095  Biso 1.000000     C
    C   1.0     0.230133     0.627783     0.318499  Biso 1.000000     C
    C   1.0     0.542734     0.140262     0.722961  Biso 1.000000     C
    C   1.0     0.280492     0.200049     0.527733  Biso 1.000000     C
    C   1.0     0.141126     0.166172     0.796039  Biso 1.000000     C
    C   1.0    -0.050999     0.913625     0.438131  Biso 1.000000     C
    C   1.0     0.029053     0.170055     0.318648  Biso 1.000000     C
    C   1.0     0.087870     0.160241     0.276351  Biso 1.000000     C
    C   1.0     0.801484     0.239888     0.020759  Biso 1.000000     C
    C   1.0     0.073590     0.196124     0.216571  Biso 1.000000     C
    C   1.0     0.354372     0.432080     0.086005  Biso 1.000000     C
    C   1.0     0.270277     0.411121     0.110521  Biso 1.000000     C
    C   1.0     0.106537     0.631026     0.531822  Biso 1.000000     C
    C   1.0     0.795675     0.190117     0.849547  Biso 1.000000     C
    C   1.0     0.111094     0.088742     0.384123  Biso 1.000000     C
    C   1.0     0.159420     0.115026     0.289189  Biso 1.000000     C
    C   1.0     0.993870     0.049909     0.944987  Biso 1.000000     C
    N   1.0     0.035691     0.644495     0.067100  Biso 1.000000     N
    N   1.0     0.100909     0.753557     0.934699  Biso 1.000000     N
    N   1.0     0.029263     0.923420     0.000000  Biso 1.000000     N
    N   1.0     0.768287     0.654295     0.933923  Biso 1.000000     N
    N   1.0     0.547532     0.960710     0.480576  Biso 1.000000     N
    N   1.0     0.825140     0.933581     0.573963  Biso 1.000000     N
    N   1.0     0.949040     0.833004     0.987069  Biso 1.000000     N
    N   1.0     0.864041     0.864865     0.067169  Biso 1.000000     N
    N   1.0     0.929434     0.573970     0.000000  Biso 1.000000     N
    N   1.0     0.763607     0.957884     0.480873  Biso 1.000000     N
    N   1.0     0.691643     0.115445     0.573835  Biso 1.000000     N
    N   1.0     0.976470     0.626720     0.986701  Biso 1.000000     N
    N   1.0     0.962327     0.085884     0.519218  Biso 1.000000     N
    N   1.0     0.500038     0.908638     0.518500  Biso 1.000000     N
    N   1.0     0.597383     0.766751     0.427523  Biso 1.000000     N
    N   1.0     0.774975     0.137990     0.428284  Biso 1.000000     N
    N   1.0    -0.028704     0.356524     0.026217  Biso 1.000000     N
    N   1.0     0.256114     0.867804     0.439086  Biso 1.000000     N
    N   1.0     0.018331     0.409270    -0.011589  Biso 1.000000     N
    N   1.0     0.172784     0.845258     0.584637  Biso 1.000000     N
    N   1.0     0.447719     0.074611     0.494421  Biso 1.000000     N
    N   1.0     0.179479     0.328954     0.079003  Biso 1.000000     N
    N   1.0     0.122626     0.049676     0.438964  Biso 1.000000     N
    N   1.0     0.846855     0.229692     0.078221  Biso 1.000000     N
    N   1.0    -0.014564     0.897372     0.493707  Biso 1.000000     N
    N   1.0     0.400228     0.022540     0.532346  Biso 1.000000     N
    N   1.0     0.350383     0.216503     0.585403  Biso 1.000000     N
    N   1.0     0.184158     0.025370     0.532053  Biso 1.000000     N
    N   1.0     0.918504     0.059828    -0.012394  Biso 1.000000     N
    N   1.0     0.083730     0.118385     0.945758  Biso 1.000000     N
    N   1.0    -0.001274     0.150244     0.025856  Biso 1.000000     N
    N   1.0     0.912074     0.338746     0.945819  Biso 1.000000     N
    O   1.0     0.730415     0.832338     0.324857  Biso 1.000000     O
    O   1.0     0.817003     0.793529     0.831764  Biso 1.000000     O
    O   1.0     0.803302     0.529285     0.807059  Biso 1.000000     O
    O   1.0     0.459635     0.789767     0.300088  Biso 1.000000     O
    O   1.0     0.672358     0.951441     0.300048  Biso 1.000000     O
    O   1.0     0.945458     0.752112     0.807004  Biso 1.000000     O
    O   1.0     0.956568     0.512653     0.832067  Biso 1.000000     O
    O   1.0     0.425745     0.933192     0.325799  Biso 1.000000     O
    O   1.0     0.217354     0.150902     0.688068  Biso 1.000000     O
    O   1.0     0.488127     0.193479     0.712836  Biso 1.000000     O
    O   1.0     0.130762     0.189736     0.181164  Biso 1.000000     O
    O   1.0     0.522016     0.050054     0.687118  Biso 1.000000     O
    O   1.0     0.275414     0.031803     0.712879  Biso 1.000000     O
    O   1.0    -0.008807     0.470606     0.180851  Biso 1.000000     O
    O   1.0     0.144453     0.453962     0.205863  Biso 1.000000     O
    O   1.0     0.002298     0.231138     0.205921  Biso 1.000000     O
   Cd   1.0     0.915102     0.682340     0.890207  Biso 1.000000    Cd
   Cd   1.0     0.607911     0.911571     0.383718  Biso 1.000000    Cd
   Cd   1.0     0.032661     0.300906     0.122716  Biso 1.000000    Cd
   Cd   1.0     0.339849     0.071678     0.629205  Biso 1.000000    Cd
