#======================================================================

# CRYSTAL DATA

#----------------------------------------------------------------------

data_VESTA_phase_1


_pd_phase_name                         MOF
_cell_length_a                         23.25800
_cell_length_b                         12.38000
_cell_length_c                         17.90200
_cell_angle_alpha                      90.00000
_cell_angle_beta                       90.00000
_cell_angle_gamma                      109.05100
_symmetry_space_group_name_H-M         "P 1"
_symmetry_Int_Tables_number            1

loop_
_symmetry_equiv_pos_as_xyz
   "x, y, z"

loop_
   _atom_site_label
   _atom_site_occupancy
   _atom_site_fract_x
   _atom_site_fract_y
   _atom_site_fract_z
   _atom_site_adp_type
   _atom_site_B_iso_or_equiv
   _atom_site_type_symbol
    H   1.0     0.359495     0.540993     0.371757  Biso 1.000000     H
    H   1.0     0.862157     0.540993     0.371760  Biso 1.000000     H
    H   1.0     0.283829     0.106183     0.400221  Biso 1.000000     H
    H   1.0     0.786486     0.106179     0.400222  Biso 1.000000     H
    H   1.0     0.113244     0.553780     0.460985  Biso 1.000000     H
    H   1.0     0.615904     0.553783     0.460988  Biso 1.000000     H
    H   1.0     0.237660     0.740314     0.000000  Biso 1.000000     H
    H   1.0     0.740320     0.740309     0.000000  Biso 1.000000     H
    H   1.0     0.385786     0.298388     0.802349  Biso 1.000000     H
    H   1.0     0.888440     0.298382     0.802352  Biso 1.000000     H
    H   1.0     0.130934     0.189047     0.943592  Biso 1.000000     H
    H   1.0     0.633596     0.189048     0.943593  Biso 1.000000     H
    H   1.0     0.023109     0.599569     0.110267  Biso 1.000000     H
    H   1.0     0.525771     0.599578     0.110267  Biso 1.000000     H
    H   1.0     0.478516     0.880997     0.191128  Biso 1.000000     H
    H   1.0     0.981171     0.881005     0.191130  Biso 1.000000     H
    H   1.0     0.446080     0.212833     0.257379  Biso 1.000000     H
    H   1.0     0.948739     0.212829     0.257383  Biso 1.000000     H
    H   1.0     0.299334     0.776979     0.799415  Biso 1.000000     H
    H   1.0     0.801994     0.776974     0.799415  Biso 1.000000     H
    H   1.0     0.125072     0.791871     0.729226  Biso 1.000000     H
    H   1.0     0.627734     0.791879     0.729225  Biso 1.000000     H
    H   1.0     0.302708     0.134859     0.059132  Biso 1.000000     H
    H   1.0     0.805371     0.134861     0.059133  Biso 1.000000     H
    H   1.0     0.370845     0.433856     0.560037  Biso 1.000000     H
    H   1.0     0.873505     0.433852     0.560038  Biso 1.000000     H
    H   1.0     0.454922     0.846276     0.838257  Biso 1.000000     H
    H   1.0     0.957568     0.846274     0.838256  Biso 1.000000     H
    H   1.0     0.271186     0.635203     0.327730  Biso 1.000000     H
    H   1.0     0.773845     0.635208     0.327729  Biso 1.000000     H
    H   1.0     0.001219     0.724136     0.000000  Biso 1.000000     H
    H   1.0     0.503876     0.724140     0.000000  Biso 1.000000     H
    H   1.0     0.185390     0.706499     0.253086  Biso 1.000000     H
    H   1.0     0.688050     0.706502     0.253084  Biso 1.000000     H
    H   1.0     0.098310     0.689264     0.218675  Biso 1.000000     H
    H   1.0     0.600966     0.689260     0.218677  Biso 1.000000     H
    H   1.0     0.246433     0.247348    -0.015796  Biso 1.000000     H
    H   1.0     0.749094     0.247347    -0.015797  Biso 1.000000     H
    H   1.0     0.184759     0.210682     0.221600  Biso 1.000000     H
    H   1.0     0.687421     0.210684     0.221598  Biso 1.000000     H
    H   1.0     0.247500     0.600073     0.701740  Biso 1.000000     H
    H   1.0     0.750161     0.600074     0.701741  Biso 1.000000     H
    H   1.0     0.110240     0.927784     0.971456  Biso 1.000000     H
    H   1.0     0.612900     0.927787     0.971455  Biso 1.000000     H
    H   1.0     0.460982     0.388077     0.910756  Biso 1.000000     H
    H   1.0     0.963639     0.388077     0.910759  Biso 1.000000     H
    H   1.0     0.124592     0.446635     0.649266  Biso 1.000000     H
    H   1.0     0.627252     0.446640     0.649266  Biso 1.000000     H
    H   1.0     0.038013     0.774823     0.763642  Biso 1.000000     H
    H   1.0     0.540674     0.774824     0.763644  Biso 1.000000     H
    H   1.0     0.353157     0.798611     0.077426  Biso 1.000000     H
    H   1.0     0.855816     0.798604     0.077429  Biso 1.000000     H
    H   1.0     0.426716     0.704217     0.288867  Biso 1.000000     H
    H   1.0     0.929366     0.704218     0.288872  Biso 1.000000     H
    H   1.0     0.298701     0.281146     0.767943  Biso 1.000000     H
    H   1.0     0.801359     0.281142     0.767941  Biso 1.000000     H
    H   1.0     0.042085     0.628741     0.451385  Biso 1.000000     H
    H   1.0     0.544738     0.628738     0.451384  Biso 1.000000     H
    H   1.0     0.488467     0.741194     0.526270  Biso 1.000000     H
    H   1.0     0.991127     0.741189     0.526272  Biso 1.000000     H
    H   1.0     0.181387     0.852802     0.961884  Biso 1.000000     H
    H   1.0     0.684050     0.852806     0.961886  Biso 1.000000     H
    H   1.0     0.111171     0.305051     0.433055  Biso 1.000000     H
    H   1.0     0.613832     0.305051     0.433055  Biso 1.000000     H
    H   1.0     0.359017     0.195768     0.291796  Biso 1.000000     H
    H   1.0     0.861677     0.195768     0.291796  Biso 1.000000     H
    H   1.0     0.261845     0.230402     0.519887  Biso 1.000000     H
    H   1.0     0.764503     0.230399     0.519890  Biso 1.000000     H
    H   1.0     0.005583     0.106646     0.829899  Biso 1.000000     H
    H   1.0     0.508239     0.106659     0.829899  Biso 1.000000     H
    H   1.0    -0.004378     0.246438     0.494754  Biso 1.000000     H
    H   1.0     0.498281     0.246439     0.494752  Biso 1.000000     H
    H   1.0     0.222246     0.757243     0.501130  Biso 1.000000     H
    H   1.0     0.724908     0.757242     0.501131  Biso 1.000000     H
    H   1.0     0.442008     0.358889     0.569639  Biso 1.000000     H
    H   1.0     0.944662     0.358882     0.569640  Biso 1.000000     H
    H   1.0     0.029183     0.141378     0.182767  Biso 1.000000     H
    H   1.0     0.531832     0.141385     0.182765  Biso 1.000000     H
    H   1.0     0.373855     0.059871     0.049567  Biso 1.000000     H
    H   1.0     0.876514     0.059865     0.049569  Biso 1.000000     H
    H   1.0     0.236586     0.387573     0.319281  Biso 1.000000     H
    H   1.0     0.739249     0.387577     0.319280  Biso 1.000000     H
    H   1.0     0.200266     0.881471     0.620795  Biso 1.000000     H
    H   1.0     0.702926     0.881471     0.620795  Biso 1.000000     H
    H   1.0     0.482879     0.263521     0.009401  Biso 1.000000     H
    H   1.0     0.985532     0.263515     0.009405  Biso 1.000000     H
    H   1.0     0.366595     0.940424     0.882228  Biso 1.000000     H
    H   1.0     0.869256     0.940421     0.882229  Biso 1.000000     H
    H   1.0     0.372917     0.682582     0.587968  Biso 1.000000     H
    H   1.0     0.875577     0.682579     0.587970  Biso 1.000000     H
    H   1.0     0.057384     0.283424     0.732157  Biso 1.000000     H
    H   1.0     0.560035     0.283428     0.732158  Biso 1.000000     H
    H   1.0     0.117502     0.047226     0.138789  Biso 1.000000     H
    H   1.0     0.620164     0.047230     0.138789  Biso 1.000000     H
    H   1.0     0.212907     0.352447     0.693302  Biso 1.000000     H
    H   1.0     0.715565     0.352445     0.693300  Biso 1.000000     H
    C   1.0     0.244293     0.817549     0.885546  Biso 1.000000     C
    C   1.0     0.746956     0.817562     0.885546  Biso 1.000000     C
    C   1.0     0.485729     0.133413     0.166499  Biso 1.000000     C
    C   1.0     0.988385     0.133403     0.166503  Biso 1.000000     C
    C   1.0     0.213155     0.782793     0.757706  Biso 1.000000     C
    C   1.0     0.715820     0.782810     0.757705  Biso 1.000000     C
    C   1.0     0.108070     0.394040     0.600401  Biso 1.000000     C
    C   1.0     0.610727     0.394043     0.600402  Biso 1.000000     C
    C   1.0     0.469438     0.690432     0.302208  Biso 1.000000     C
    C   1.0     0.972084     0.690415     0.302203  Biso 1.000000     C
    C   1.0     0.282027     0.785782     0.000000  Biso 1.000000     C
    C   1.0     0.784687     0.785774     0.000000  Biso 1.000000     C
    C   1.0     0.259580     0.244572     0.460464  Biso 1.000000     C
    C   1.0     0.762236     0.244570     0.460467  Biso 1.000000     C
    C   1.0     0.350082     0.887869     0.931112  Biso 1.000000     C
    C   1.0     0.852740     0.887863     0.931111  Biso 1.000000     C
    C   1.0     0.064804     0.679488     0.262958  Biso 1.000000     C
    C   1.0     0.567463     0.679512     0.262962  Biso 1.000000     C
    C   1.0     0.474504     0.312394     0.912896  Biso 1.000000     C
    C   1.0     0.977162     0.312395     0.912900  Biso 1.000000     C
    C   1.0     0.270935     0.204853     0.263313  Biso 1.000000     C
    C   1.0     0.773601     0.204872     0.263310  Biso 1.000000     C
    C   1.0     0.405355     0.089404     0.095638  Biso 1.000000     C
    C   1.0     0.908013     0.089396     0.095640  Biso 1.000000     C
    C   1.0     0.339362     0.404376     0.606130  Biso 1.000000     C
    C   1.0     0.842020     0.404373     0.606130  Biso 1.000000     C
    C   1.0     0.386822     0.664149     0.532988  Biso 1.000000     C
    C   1.0     0.889482     0.664143     0.532992  Biso 1.000000     C
    C   1.0     0.325502     0.185950     0.247516  Biso 1.000000     C
    C   1.0     0.828158     0.185924     0.247520  Biso 1.000000     C
    C   1.0     0.076142     0.654438     0.336407  Biso 1.000000     C
    C   1.0     0.578794     0.654421     0.336407  Biso 1.000000     C
    C   1.0     0.183511     0.664050     0.306651  Biso 1.000000     C
    C   1.0     0.686169     0.664052     0.306649  Biso 1.000000     C
    C   1.0     0.158591     0.801713     0.773503  Biso 1.000000     C
    C   1.0     0.661248     0.801695     0.773504  Biso 1.000000     C
    C   1.0     0.239801     0.170104     0.135471  Biso 1.000000     C
    C   1.0     0.742466     0.170123     0.135469  Biso 1.000000     C
    C   1.0     0.444176     0.170313     0.203837  Biso 1.000000     C
    C   1.0     0.946833     0.170309     0.203840  Biso 1.000000     C
    C   1.0     0.300582     0.323595     0.714378  Biso 1.000000     C
    C   1.0     0.803239     0.323593     0.714377  Biso 1.000000     C
    C   1.0     0.078741     0.898252     0.925385  Biso 1.000000     C
    C   1.0     0.581401     0.898253     0.925385  Biso 1.000000     C
    C   1.0     0.238912     0.659246     0.662126  Biso 1.000000     C
    C   1.0     0.741573     0.659245     0.662126  Biso 1.000000     C
    C   1.0     0.270305     0.181864     0.402338  Biso 1.000000     C
    C   1.0     0.772963     0.181862     0.402341  Biso 1.000000     C
    C   1.0     0.039994     0.291909     0.518183  Biso 1.000000     C
    C   1.0     0.542653     0.291912     0.518182  Biso 1.000000     C
    C   1.0     0.481795     0.663817     0.375025  Biso 1.000000     C
    C   1.0     0.984453     0.663842     0.375027  Biso 1.000000     C
    C   1.0     0.213786     0.805786     0.618678  Biso 1.000000     C
    C   1.0     0.716447     0.805785     0.618680  Biso 1.000000     C
    C   1.0     0.376021     0.593589     0.420620  Biso 1.000000     C
    C   1.0     0.878678     0.593585     0.420626  Biso 1.000000     C
    C   1.0     0.010231     0.698371     0.247155  Biso 1.000000     C
    C   1.0     0.512881     0.698350     0.247153  Biso 1.000000     C
    C   1.0     0.147288     0.826924     0.846932  Biso 1.000000     C
    C   1.0     0.649952     0.826939     0.846930  Biso 1.000000     C
    C   1.0     0.224512     0.743074     0.560554  Biso 1.000000     C
    C   1.0     0.727171     0.743074     0.560556  Biso 1.000000     C
    C   1.0    -0.015538     0.821817     0.151535  Biso 1.000000     C
    C   1.0     0.487112     0.821813     0.151528  Biso 1.000000     C
    C   1.0     0.294522     0.153372     0.117055  Biso 1.000000     C
    C   1.0     0.797177     0.153347     0.117059  Biso 1.000000     C
    C   1.0    -0.001123     0.737948     0.049981  Biso 1.000000     C
    C   1.0     0.501536     0.737953     0.049984  Biso 1.000000     C
    C   1.0     0.225084     0.627220     0.344002  Biso 1.000000     C
    C   1.0     0.727743     0.627228     0.344002  Biso 1.000000     C
    C   1.0     0.245175     0.328401     0.358894  Biso 1.000000     C
    C   1.0     0.747836     0.328399     0.358892  Biso 1.000000     C
    C   1.0     0.499642     0.165843     0.869497  Biso 1.000000     C
    C   1.0     0.000000     0.165832     0.869494  Biso 1.000000     C
    C   1.0     0.033871     0.647136     0.393447  Biso 1.000000     C
    C   1.0     0.536532     0.647160     0.393449  Biso 1.000000     C
    C   1.0     0.189577     0.834301     0.903960  Biso 1.000000     C
    C   1.0     0.692232     0.834281     0.903963  Biso 1.000000     C
    C   1.0     0.256625     0.790822     0.812744  Biso 1.000000     C
    C   1.0     0.759283     0.790803     0.812750  Biso 1.000000     C
    C   1.0     0.144852     0.170654     0.998574  Biso 1.000000     C
    C   1.0     0.647516     0.170654     0.998574  Biso 1.000000     C
    C   1.0     0.407955     0.333217     0.684617  Biso 1.000000     C
    C   1.0     0.910608     0.333204     0.684619  Biso 1.000000     C
    C   1.0     0.419288     0.308140     0.758063  Biso 1.000000     C
    C   1.0     0.921945     0.308147     0.758067  Biso 1.000000     C
    C   1.0     0.202066     0.201880     0.007650  Biso 1.000000     C
    C   1.0     0.704728     0.201879     0.007651  Biso 1.000000     C
    C   1.0     0.009588     0.675252     0.108126  Biso 1.000000     C
    C   1.0     0.512249     0.675261     0.108128  Biso 1.000000     C
    C   1.0     0.259008     0.360424     0.677026  Biso 1.000000     C
    C   1.0     0.761666     0.360424     0.677026  Biso 1.000000     C
    C   1.0     0.227471     0.196849     0.208269  Biso 1.000000     C
    C   1.0     0.730127     0.196830     0.208272  Biso 1.000000     C
    C   1.0     0.339239     0.817007     0.022445  Biso 1.000000     C
    C   1.0     0.841899     0.816996     0.022447  Biso 1.000000     C
    C   1.0     0.485220     0.249707     0.971042  Biso 1.000000     C
    C   1.0     0.987874     0.249702     0.971045  Biso 1.000000     C
    C   1.0     0.444095     0.695722     0.502842  Biso 1.000000     C
    C   1.0     0.946754     0.695719     0.502842  Biso 1.000000     C
    C   1.0    -0.001634     0.854248     0.854520  Biso 1.000000     C
    C   1.0     0.501025     0.854247     0.854524  Biso 1.000000     C
    C   1.0     0.039919     0.817345     0.817184  Biso 1.000000     C
    C   1.0     0.542578     0.817346     0.817186  Biso 1.000000     C
    C   1.0     0.097266     0.323485     0.488034  Biso 1.000000     C
    C   1.0     0.599926     0.323485     0.488034  Biso 1.000000     C
    C   1.0     0.144729     0.583263     0.414895  Biso 1.000000     C
    C   1.0     0.647388     0.583266     0.414896  Biso 1.000000     C
    C   1.0     0.014664     0.297220     0.718823  Biso 1.000000     C
    C   1.0     0.517313     0.297214     0.718817  Biso 1.000000     C
    C   1.0     0.336804     0.160725     0.174089  Biso 1.000000     C
    C   1.0     0.839467     0.160736     0.174087  Biso 1.000000     C
    C   1.0     0.134015     0.099786     0.089907  Biso 1.000000     C
    C   1.0     0.636674     0.099783     0.089904  Biso 1.000000     C
    C   1.0     0.002297     0.323797     0.646000  Biso 1.000000     C
    C   1.0     0.504953     0.323815     0.645998  Biso 1.000000     C
    C   1.0     0.473868     0.289294     0.773871  Biso 1.000000     C
    C   1.0     0.976521     0.289281     0.773872  Biso 1.000000     C
    C   1.0     0.450218     0.340480     0.627575  Biso 1.000000     C
    C   1.0     0.952875     0.340486     0.627578  Biso 1.000000     C
    N   1.0     0.351843     0.351755     0.668483  Biso 1.000000     N
    N   1.0     0.854499     0.351747     0.668481  Biso 1.000000     N
    N   1.0     0.436485     0.652120     0.430599  Biso 1.000000     N
    N   1.0     0.939141     0.652127     0.430598  Biso 1.000000     N
    N   1.0    -0.002145     0.158140     0.943522  Biso 1.000000     N
    N   1.0     0.500504     0.158137     0.943525  Biso 1.000000     N
    N   1.0     0.289621     0.829324     0.941109  Biso 1.000000     N
    N   1.0     0.792279     0.829323     0.941113  Biso 1.000000     N
    N   1.0     0.283546     0.411002     0.609961  Biso 1.000000     N
    N   1.0     0.786205     0.411001     0.609961  Biso 1.000000     N
    N   1.0     0.239787     0.651512     0.588100  Biso 1.000000     N
    N   1.0     0.742448     0.651511     0.588100  Biso 1.000000     N
    N   1.0     0.484259     0.259049     0.848306  Biso 1.000000     N
    N   1.0     0.986913     0.259046     0.848310  Biso 1.000000     N
    N   1.0     0.260562     0.235186     0.337732  Biso 1.000000     N
    N   1.0     0.763226     0.235186     0.337734  Biso 1.000000     N
    N   1.0     0.022930     0.904902     0.921557  Biso 1.000000     N
    N   1.0     0.525590     0.904903     0.921558  Biso 1.000000     N
    N   1.0     0.139346     0.387633     0.539482  Biso 1.000000     N
    N   1.0     0.642004     0.387633     0.539485  Biso 1.000000     N
    N   1.0     0.223526     0.752463     0.683284  Biso 1.000000     N
    N   1.0     0.726190     0.752464     0.683287  Biso 1.000000     N
    N   1.0     0.047607     0.335501     0.590427  Biso 1.000000     N
    N   1.0     0.550263     0.335512     0.590425  Biso 1.000000     N
    N   1.0     0.132250     0.635893     0.352545  Biso 1.000000     N
    N   1.0     0.634906     0.635884     0.352541  Biso 1.000000     N
    N   1.0     0.381370     0.881508     0.992031  Biso 1.000000     N
    N   1.0     0.884026     0.881502     0.992031  Biso 1.000000     N
    N   1.0     0.244301     0.336133     0.432920  Biso 1.000000     N
    N   1.0     0.746962     0.336131     0.432918  Biso 1.000000     N
    N   1.0     0.200546     0.576641     0.411067  Biso 1.000000     N
    N   1.0     0.703204     0.576647     0.411067  Biso 1.000000     N
    N   1.0     0.194476     0.158332     0.079905  Biso 1.000000     N
    N   1.0     0.697135     0.158336     0.079909  Biso 1.000000     N
    N   1.0     0.091193     0.845534     0.863059  Biso 1.000000     N
    N   1.0     0.593855     0.845543     0.863057  Biso 1.000000     N
    N   1.0     0.461166     0.082756     0.099464  Biso 1.000000     N
    N   1.0     0.963824     0.082747     0.099466  Biso 1.000000     N
    N   1.0    -0.000162     0.728602     0.172717  Biso 1.000000     N
    N   1.0     0.502492     0.728605     0.172719  Biso 1.000000     N
    N   1.0     0.344745     0.599999     0.481538  Biso 1.000000     N
    N   1.0     0.847402     0.599995     0.481544  Biso 1.000000     N
    N   1.0     0.392900     0.142118     0.157964  Biso 1.000000     N
    N   1.0     0.895562     0.142122     0.157962  Biso 1.000000     N
    N   1.0     0.102727     0.106146     0.028988  Biso 1.000000     N
    N   1.0     0.605386     0.106147     0.028986  Biso 1.000000     N
    N   1.0     0.486251     0.829522     0.077501  Biso 1.000000     N
    N   1.0     0.988898     0.829512     0.077507  Biso 1.000000     N
    N   1.0     0.064914     0.642509     0.626763  Biso 1.000000     N
    N   1.0     0.567572     0.642515     0.626763  Biso 1.000000     N
    N   1.0     0.325586     0.149067     0.904813  Biso 1.000000     N
    N   1.0     0.828244     0.149056     0.904812  Biso 1.000000     N
    N   1.0     0.419170     0.345083     0.394282  Biso 1.000000     N
    N   1.0     0.921832     0.345082     0.394282  Biso 1.000000     N
    N   1.0     0.158497     0.838565     0.116230  Biso 1.000000     N
    N   1.0     0.661158     0.838566     0.116230  Biso 1.000000     N
    O   1.0     0.056238     0.738877     0.635086  Biso 1.000000     O
    O   1.0     0.558898     0.738883     0.635089  Biso 1.000000     O
    O   1.0     0.059164     0.595988     0.562468  Biso 1.000000     O
    O   1.0     0.561825     0.595998     0.562467  Biso 1.000000     O
    O   1.0     0.079388     0.593736     0.682894  Biso 1.000000     O
    O   1.0     0.582047     0.593739     0.682892  Biso 1.000000     O
    O   1.0     0.316920     0.245445     0.896488  Biso 1.000000     O
    O   1.0     0.819577     0.245433     0.896489  Biso 1.000000     O
    O   1.0     0.319846     0.102556     0.969109  Biso 1.000000     O
    O   1.0     0.822509     0.102550     0.969110  Biso 1.000000     O
    O   1.0     0.340035     0.100267     0.848677  Biso 1.000000     O
    O   1.0     0.842695     0.100260     0.848677  Biso 1.000000     O
    O   1.0     0.424916     0.391596     0.458578  Biso 1.000000     O
    O   1.0     0.927572     0.391592     0.458579  Biso 1.000000     O
    O   1.0     0.404703     0.393868     0.338152  Biso 1.000000     O
    O   1.0     0.907361     0.393863     0.338153  Biso 1.000000     O
    O   1.0     0.427839     0.248709     0.385959  Biso 1.000000     O
    O   1.0     0.930495     0.248702     0.385961  Biso 1.000000     O
    O   1.0     0.144054     0.887384     0.172360  Biso 1.000000     O
    O   1.0     0.646710     0.887383     0.172359  Biso 1.000000     O
    O   1.0     0.164232     0.885055     0.051928  Biso 1.000000     O
    O   1.0     0.666895     0.885059     0.051929  Biso 1.000000     O
    O   1.0     0.167164     0.742189     0.124564  Biso 1.000000     O
    O   1.0     0.669823     0.742188     0.124563  Biso 1.000000     O
   Cd   1.0     0.242044     0.493819     0.510513  Biso 1.000000    Cd
   Cd   1.0     0.744704     0.493819     0.510513  Biso 1.000000    Cd
   Cd   1.0     0.000013    -0.000022    -0.000016  Biso 1.000000    Cd
   Cd   1.0     0.502667    -0.000017    -0.000018  Biso 1.000000    Cd
