#======================================================================

# CRYSTAL DATA

#----------------------------------------------------------------------

data_VESTA_phase_1


_pd_phase_name                         MOF
_cell_length_a                         12.39600
_cell_length_b                         20.15300
_cell_length_c                         20.22500
_cell_angle_alpha                      102.71700
_cell_angle_beta                       94.69800
_cell_angle_gamma                      94.47400
_symmetry_space_group_name_H-M         "P 1"
_symmetry_Int_Tables_number            1

loop_
_symmetry_equiv_pos_as_xyz
   "x, y, z"

loop_
   _atom_site_label
   _atom_site_fract_x
   _atom_site_fract_y
   _atom_site_fract_z
 _atom_site_charge
 Zn1 0.805512 0.60889 0.11389  0.894345808824
 Zn1 0.616261 0.664073 0.15020  0.894345808824
 Zn2 0.916743 0.200016 0.92677  0.912970808824
 Zn2 0.008781 0.349565 0.08580  0.912970808824
 Zn1 0.305549 0.114047 0.60870  0.894345808824
 Zn1 0.116116 0.15052 0.663  0.894345808824
 Zn2 0.416793 0.927932 0.19818  0.912970808824
 Zn2 0.5088 0.085327 0.34984  0.912970808824
 H1 0.521494 0.727223 0.28106  0.0952517463235
 H1 0.437673 0.650079 0.24318  0.0952517463235
 H1 0.301223 0.837182 0.28138  0.0952517463235
 H1 0.442994 0.834317 0.30326  0.0952517463235
 H1 0.318391 0.797332 0.09733  0.0952517463235
 H1 0.228453 0.815109 0.1626  0.0952517463235
 H1 0.188625 0.733306 0.22936  0.0952517463235
 H1 0.246616 0.653264 0.21241  0.0952517463235
 H1 0.363943 0.628319 0.12507  0.0952517463235
 H1 0.395783 0.688818 0.0750  0.0952517463235
 H1 0.509313 0.794397 0.12659  0.0952517463235
 H1 0.563838 0.809849 0.21351  0.0952517463235
 H1 0.038675 0.597055 0.18245  0.0952517463235
 H1 0.058266 0.648237 0.12183  0.0952517463235
 H1 0.858916 0.462157 0.0652  0.0952517463235
 H1 0.924828 0.489838 0.14949  0.0952517463235
 H1 0.968004 0.610965 0.00727  0.0952517463235
 H1 0.884313 0.531755 0.9830  0.0952517463235
 H1 0.198904 0.462945 0.10063  0.0952517463235
 H1 0.121299 0.489953 0.1700  0.0952517463235
 H1 0.162237 0.612078 0.02911  0.0952517463235
 H1 0.222387 0.533148 0.01892  0.0952517463235
 H1 0.965712 0.425719 0.97028  0.0952517463235
 H1 0.109732 0.425999 0.98589  0.0952517463235
 H1 0.651407 0.841479 0.06101  0.0952517463235
 H1 0.625655 0.956978 0.04429  0.0952517463235
 H1 0.690416 0.058534 0.00096  0.0952517463235
 H1 0.960395 0.956278 0.92257  0.0952517463235
 H1 0.990628 0.841508 0.94394  0.0952517463235
 H1 0.931334 0.743132 0.99294  0.0952517463235
 H1 0.799101 0.446881 0.21550  0.0952517463235
 H1 0.440811 0.406619 0.30253  0.0952517463235
 H1 0.483039 0.509321 0.25646  0.0952517463235
 H1 0.852496 0.337348 0.23783  0.0952517463235
 H1 0.813154 0.236165 0.28751  0.0952517463235
 H1 0.497453 0.298661 0.32976  0.0952517463235
 H1 0.75125 0.826883 0.33122  0.0952517463235
 H1 0.767784 0.928606 0.42851  0.0952517463235
 H1 0.170857 0.925786 0.45235  0.0952517463235
 H1 0.153725 0.820787 0.35826  0.0952517463235
 H1 0.036376 0.733757 0.26897  0.0952517463235
 H1 0.885204 0.015322 0.51881  0.0952517463235
 H1 0.68595 0.384124 0.10549  0.0952517463235
 H1 0.487788 0.385417 0.11322  0.0952517463235
 H1 0.29807 0.340296 0.06595  0.0952517463235
 H1 0.628994 0.226216 0.92133  0.0952517463235
 H1 0.438191 0.177793 0.87601  0.0952517463235
 H1 0.240331 0.178964 0.8841  0.0952517463235
 H1 0.021039 0.282071 0.72607  0.0952517463235
 H1 0.937176 0.243884 0.64915  0.0952517463235
 H1 0.800961 0.283097 0.83539  0.0952517463235
 H1 0.942682 0.304859 0.83267  0.0952517463235
 H1 0.818569 0.098415 0.79645  0.0952517463235
 H1 0.728485 0.164074 0.81373  0.0952517463235
 H1 0.688319 0.230643 0.73172  0.0952517463235
 H1 0.746339 0.213248 0.65211  0.0952517463235
 H1 0.863765 0.125459 0.6278  0.0952517463235
 H1 0.895892 0.07556 0.68842  0.0952517463235
 H1 0.009407 0.127498 0.79371  0.0952517463235
 H1 0.063728 0.214635 0.80886  0.0952517463235
 H1 0.538374 0.18276 0.59667  0.0952517463235
 H1 0.558376 0.122068 0.64786  0.0952517463235
 H1 0.358585 0.065152 0.46219  0.0952517463235
 H1 0.424332 0.149625 0.48975  0.0952517463235
 H1 0.468351 0.007147 0.6108  0.0952517463235
 H1 0.384492 0.982783 0.53180  0.0952517463235
 H1 0.698528 0.10028 0.46334  0.0952517463235
 H1 0.620762 0.16999 0.49002  0.0952517463235
 H1 0.662453 0.028902 0.61214  0.0952517463235
 H1 0.722511 0.018435 0.53358  0.0952517463235
 H1 0.465558 0.96975 0.42624  0.0952517463235
 H1 0.609546 0.98521 0.42658  0.0952517463235
 H1 0.151155 0.060954 0.83955  0.0952517463235
 H1 0.124889 0.044615 0.95450  0.0952517463235
 H1 0.18986 0.002002 0.05649  0.0952517463235
 H1 0.461086 0.923296 0.95615  0.0952517463235
 H1 0.491588 0.944178 0.84164  0.0952517463235
 H1 0.432139 0.992736 0.7430  0.0952517463235
 H1 0.299138 0.216253 0.44793  0.0952517463235
 H1 0.940413 0.303396 0.40635  0.0952517463235
 H1 0.982679 0.257521 0.50904  0.0952517463235
 H1 0.352623 0.238237 0.33877  0.0952517463235
 H1 0.312953 0.287382 0.23741  0.0952517463235
 H1 0.996975 0.330198 0.29871  0.0952517463235
 H1 0.250996 0.3318 0.82656  0.0952517463235
 H1 0.267613 0.429293 0.92816  0.0952517463235
 H1 0.670592 0.452882 0.92551  0.0952517463235
 H1 0.653294 0.358944 0.82056  0.0952517463235
 H1 0.535922 0.269499 0.73364  0.0952517463235
 H1 0.385138 0.519517 0.01493  0.0952517463235
 H1 0.18563 0.105436 0.38502  0.0952517463235
 H1 0.987411 0.11265 0.38690  0.0952517463235
 H1 0.79769 0.065521 0.34144  0.0952517463235
 H1 0.129032 0.922933 0.22484  0.0952517463235
 H1 0.938329 0.877618 0.17642  0.0952517463235
 H1 0.740385 0.885505 0.17788  0.0952517463235
 C1 0.450199 0.70492 0.24490  0.125707058824
 C1 0.372709 0.810928 0.26657  0.125707058824
 C1 0.30032 0.78928 0.14739  0.125707058824
 C1 0.261116 0.708118 0.21434  0.125707058824
 C1 0.377638 0.682911 0.12581  0.125707058824
 C1 0.493071 0.787334 0.17715  0.125707058824
 C1 0.048273 0.595674 0.12868  0.125707058824
 C1 0.93319 0.488818 0.09575  0.125707058824
 C1 0.959136 0.558121 0.01329  0.125707058824
 C1 0.128961 0.490425 0.11641  0.125707058824
 C1 0.151338 0.559206 0.03516  0.125707058824
 C1 0.039422 0.453329 0.  0.125707058824
 C2 0.756405 0.728143 0.06154  0.676969558824
 C3 0.787706 0.786603 0.03023  -0.0428329411765
 C4 0.725795 0.841603 0.03582  -0.0874052328431
 C3 0.758261 0.898914 0.00977  -0.0428329411765
 C4 0.698801 0.95725 0.01775  -0.0874052328431
 C4 0.73412 0.013058 0.99357  -0.0874052328431
 C4 0.887599 0.955898 0.94935  -0.0874052328431
 C4 0.91663 0.841289 0.96969  -0.0874052328431
 C4 0.884129 0.786905 0.99665  -0.0874052328431
 C3 0.829115 0.012468 0.95855  -0.0428329411765
 C2 0.869609 0.073362 0.9334  0.676969558824
 C3 0.855361 0.898701 0.97549  -0.0428329411765
 C2 0.668562 0.544529 0.20306  0.676969558824
 C3 0.644719 0.48448 0.23366  -0.0428329411765
 C4 0.721272 0.438078 0.23507  -0.0874052328431
 C3 0.70001 0.378966 0.26047  -0.0428329411765
 C3 0.597116 0.367631 0.28609  -0.0428329411765
 C4 0.519689 0.415883 0.28416  -0.0874052328431
 C4 0.542678 0.472746 0.25858  -0.0874052328431
 C4 0.776696 0.330066 0.26043  -0.0874052328431
 C4 0.754589 0.273687 0.28685  -0.0874052328431
 C4 0.575797 0.308152 0.31114  -0.0874052328431
 C3 0.652996 0.262175 0.31239  -0.0428329411765
 C2 0.630826 0.199045 0.33881  0.676969558824
 C2 0.820474 0.72446 0.23794  0.676969558824
 C3 0.886935 0.775789 0.29468  -0.0428329411765
 C4 0.839197 0.825798 0.33771  -0.0874052328431
 C3 0.902805 0.875903 0.38924  -0.0428329411765
 C4 0.855911 0.927674 0.43424  -0.0874052328431
 C4 0.082617 0.925654 0.44722  -0.0874052328431
 C3 0.018903 0.874862 0.39644  -0.0428329411765
 C4 0.065725 0.822446 0.35216  -0.0874052328431
 C4 0.001534 0.774349 0.30289  -0.0874052328431
 C3 0.034694 0.975112 0.49081  -0.0428329411765
 C2 0.102002 0.0288 0.54493  0.676969558824
 C4 0.919914 0.975491 0.48386  -0.0874052328431
 C3 0.668834 0.305538 0.01196  -0.0428329411765
 C2 0.788555 0.304907 0.00922  0.676969558824
 C4 0.6285 0.35035 0.06687  -0.0874052328431
 C4 0.518518 0.350911 0.07104  -0.0874052328431
 C4 0.329707 0.306196 0.023  -0.0874052328431
 C2 0.138747 0.263529 0.97877  0.676969558824
 C3 0.443219 0.306184 0.02105  -0.0428329411765
 C3 0.483537 0.25976 0.9660  -0.0428329411765
 C4 0.597188 0.261238 0.96257  -0.0874052328431
 C4 0.407891 0.213756 0.91728  -0.0874052328431
 C3 0.257905 0.261572 0.97482  -0.0428329411765
 C4 0.297811 0.21428 0.92161  -0.0874052328431
 C1 0.949831 0.24581 0.70387  0.125707058824
 C1 0.872462 0.268047 0.80940  0.125707058824
 C1 0.80038 0.148593 0.78818  0.125707058824
 C1 0.760861 0.215396 0.70684  0.125707058824
 C1 0.877582 0.126416 0.68229  0.125707058824
 C1 0.993049 0.178177 0.78643  0.125707058824
 C1 0.548166 0.12882 0.59542  0.125707058824
 C1 0.432845 0.09571 0.48881  0.125707058824
 C1 0.459302 0.013102 0.55811  0.125707058824
 C1 0.628592 0.116229 0.49060  0.125707058824
 C1 0.651442 0.034857 0.55939  0.125707058824
 C1 0.539317 0.0 0.45375  0.125707058824
 C2 0.256521 0.061294 0.72719  0.676969558824
 C3 0.287976 0.030053 0.78560  -0.0428329411765
 C4 0.225758 0.035779 0.84012  -0.0874052328431
 C3 0.258235 0.00997 0.89751  -0.0428329411765
 C4 0.198386 0.018204 0.9553  -0.0874052328431
 C4 0.233763 0.994423 0.01135  -0.0874052328431
 C4 0.387991 0.95 0.95526  -0.0874052328431
 C4 0.417288 0.969839 0.84095  -0.0874052328431
 C4 0.38472 0.996563 0.78644  -0.0874052328431
 C3 0.329144 0.959486 0.01138  -0.0428329411765
 C2 0.369495 0.934869 0.07251  0.676969558824
 C3 0.355722 0.975831 0.89791  -0.0428329411765
 C2 0.168562 0.203908 0.54481  0.676969558824
 C3 0.144558 0.234544 0.48486  -0.0428329411765
 C4 0.221202 0.235843 0.4388  -0.0874052328431
 C3 0.199894 0.261086 0.37972  -0.0428329411765
 C3 0.096836 0.286715 0.36799  -0.0428329411765
 C4 0.019363 0.284997 0.41590  -0.0874052328431
 C4 0.042386 0.259517 0.47276  -0.0874052328431
 C4 0.276642 0.260812 0.33116  -0.0874052328431
 C4 0.254375 0.286967 0.27470  -0.0874052328431
 C4 0.075416 0.311542 0.30846  -0.0874052328431
 C3 0.152609 0.31251 0.26278  -0.0428329411765
 C2 0.130385 0.33864 0.1995  0.676969558824
 C2 0.320262 0.23825 0.72439  0.676969558824
 C3 0.386594 0.295202 0.77559  -0.0428329411765
 C4 0.338897 0.338321 0.82549  -0.0874052328431
 C3 0.402514 0.389897 0.87556  -0.0428329411765
 C4 0.355717 0.434945 0.92728  -0.0874052328431
 C4 0.582381 0.447796 0.92536  -0.0874052328431
 C3 0.518595 0.397081 0.87455  -0.0428329411765
 C4 0.565345 0.352798 0.82219  -0.0874052328431
 C4 0.501155 0.303463 0.77416  -0.0874052328431
 C3 0.534561 0.49138 0.97482  -0.0428329411765
 C2 0.602004 0.54541 0.02855  0.676969558824
 C4 0.419785 0.484523 0.97512  -0.0874052328431
 C3 0.168729 0.012732 0.30521  -0.0428329411765
 C2 0.288458 0.010141 0.30419  0.676969558824
 C4 0.128263 0.067032 0.35087  -0.0874052328431
 C4 0.018219 0.07092 0.35176  -0.0874052328431
 C4 0.829447 0.023869 0.30678  -0.0874052328431
 C2 0.638565 0.979151 0.26337  0.676969558824
 C3 0.943011 0.021255 0.30657  -0.0428329411765
 C3 0.983455 0.966857 0.25937  -0.0428329411765
 C4 0.097123 0.96368 0.26049  -0.0874052328431
 C4 0.907911 0.918446 0.21292  -0.0874052328431
 C3 0.757761 0.975255 0.26155  -0.0428329411765
 C4 0.797801 0.922621 0.21360  -0.0874052328431
 N1 0.475406 0.712943 0.17535  -0.304119191176
 N2 0.353864 0.738322 0.26520  -0.396732941176
 N2 0.280779 0.716445 0.14539  -0.396732941176
 N1 0.39576 0.822553 0.19792  -0.304119191176
 N1 0.945947 0.560227 0.08703  -0.304119191176
 N1 0.028382 0.451868 0.07440  -0.304119191176
 N2 0.143335 0.56063 0.10795  -0.396732941176
 N2 0.053479 0.523117 0.9918  -0.396732941176
 N1 0.975268 0.176092 0.71220  -0.304119191176
 N2 0.853494 0.266408 0.73695  -0.396732941176
 N2 0.780726 0.146297 0.71550  -0.396732941176
 N1 0.895734 0.199255 0.82134  -0.304119191176
 N1 0.445842 0.087069 0.5600  -0.304119191176
 N1 0.528046 0.074124 0.45210  -0.304119191176
 N2 0.643198 0.107877 0.56063  -0.396732941176
 N2 0.553629 0.991486 0.52336  -0.396732941176
 O1 0.819309 0.680313 0.05637  -0.596397762605
 O1 0.670679 0.73037 0.09251  -0.596397762605
 O1 0.829257 0.130505 0.95858  -0.596397762605
 O2 0.939476 0.06962 0.89153  -0.587464191176
 O1 0.759667 0.548949 0.17823  -0.596397762605
 O1 0.596687 0.586439 0.20240  -0.596397762605
 O2 0.706603 0.169872 0.36048  -0.587464191176
 O1 0.527386 0.177327 0.33614  -0.596397762605
 O1 0.873511 0.684429 0.19762  -0.596397762605
 O1 0.71731 0.725002 0.23321  -0.596397762605
 O1 0.051082 0.063975 0.59049  -0.596397762605
 O1 0.20431 0.035884 0.5413  -0.596397762605
 O1 0.106622 0.31632 0.01640  -0.596397762605
 O1 0.07626 0.212909 0.94249  -0.596397762605
 O1 0.848475 0.333187 0.06422  -0.596397762605
 O1 0.824251 0.277918 0.95293  -0.596397762605
 O1 0.319433 0.056103 0.67968  -0.596397762605
 O1 0.170541 0.092306 0.72922  -0.596397762605
 O1 0.329518 0.960953 0.12925  -0.596397762605
 O2 0.438992 0.892395 0.06943  -0.587464191176
 O1 0.260078 0.17933 0.54960  -0.596397762605
 O1 0.096519 0.202893 0.58625  -0.596397762605
 O2 0.206134 0.360063 0.17052  -0.587464191176
 O1 0.026952 0.33602 0.17760  -0.596397762605
 O1 0.373389 0.197774 0.68459  -0.596397762605
 O1 0.217114 0.233501 0.72485  -0.596397762605
 O1 0.55118 0.591153 0.06374  -0.596397762605
 O1 0.7043 0.541572 0.03564  -0.596397762605
 O1 0.606119 0.015035 0.31693  -0.596397762605
 O1 0.576368 0.944577 0.21178  -0.596397762605
 O1 0.348365 0.064875 0.33367  -0.596397762605
 O1 0.324161 0.954197 0.2757  -0.596397762605
