#======================================================================

# CRYSTAL DATA

#----------------------------------------------------------------------

data_VESTA_phase_1


_pd_phase_name                         MOF
_cell_length_a                         14.64700
_cell_length_b                         20.81700
_cell_length_c                         16.59600
_cell_angle_alpha                      89.99700
_cell_angle_beta                       90.00600
_cell_angle_gamma                      90.00400
_symmetry_space_group_name_H-M         "P 1"
_symmetry_Int_Tables_number            1

loop_
_symmetry_equiv_pos_as_xyz
   "x, y, z"

loop_
   _atom_site_label
   _atom_site_fract_x
   _atom_site_fract_y
   _atom_site_fract_z
 _atom_site_charge
 Ag1 0.315233 0.035345 0.30128  -0.1030672
 Ag1 0.315245 0.535329 0.30129  -0.1030672
 Ag1 0.815223 0.035345 0.30128  -0.1030672
 Ag1 0.815235 0.535329 0.30129  -0.1030672
 Ag1 0.369419 0.13428 0.91529  -0.1030672
 Ag1 0.369455 0.634276 0.91528  -0.1030672
 Ag1 0.869411 0.134282 0.91529  -0.1030672
 Ag1 0.86944 0.634275 0.91528  -0.1030672
 Ag1 0.065236 0.285342 0.1987  -0.1030672
 Ag1 0.065226 0.78533 0.1987  -0.1030672
 Ag1 0.565226 0.285342 0.1987  -0.1030672
 Ag1 0.565218 0.78533 0.19871  -0.1030672
 Ag1 0.619405 0.384286 0.58475  -0.1030672
 Ag1 0.619383 0.884278 0.58474  -0.1030672
 Ag1 0.0 0.384288 0.58475  -0.1030672
 Ag1 0.0 0.884276 0.58474  -0.1030672
 Ag1 0.065218 0.464647 0.6987  -0.1030672
 Ag1 0.065212 0.964638 0.6987  -0.1030672
 Ag1 0.565212 0.46465 0.69872  -0.1030672
 Ag1 0.565198 0.964636 0.69873  -0.1030672
 Ag1 0.619379 0.365716 0.08472  -0.1030672
 Ag1 0.619353 0.865704 0.08472  -0.1030672
 Ag1 0.0 0.365716 0.08472  -0.1030672
 Ag1 0.0 0.865703 0.08472  -0.1030672
 Ag1 0.315227 0.214655 0.80131  -0.1030672
 Ag1 0.315211 0.714637 0.80130  -0.1030672
 Ag1 0.815214 0.214653 0.80131  -0.1030672
 Ag1 0.815204 0.71464 0.80130  -0.1030672
 Ag1 0.369439 0.115704 0.41527  -0.1030672
 Ag1 0.36941 0.6157 0.41528  -0.1030672
 Ag1 0.86943 0.115704 0.41527  -0.1030672
 Ag1 0.869397 0.6157 0.41528  -0.1030672
 P1 0.989219 0.050265 0.16210  0.8912828
 P1 0.989216 0.550252 0.16211  0.8912828
 P1 0.489213 0.050266 0.16210  0.8912828
 P1 0.489208 0.550253 0.16211  0.8912828
 P1 0.239233 0.300253 0.33790  0.8912828
 P1 0.239221 0.800245 0.33790  0.8912828
 P1 0.739223 0.300253 0.33790  0.8912828
 P1 0.73921 0.800244 0.33790  0.8912828
 P1 0.239226 0.449726 0.83791  0.8912828
 P1 0.239216 0.94971 0.83791  0.8912828
 P1 0.739218 0.449724 0.83791  0.8912828
 P1 0.739204 0.949711 0.83791  0.8912828
 P1 0.989209 0.199736 0.66212  0.8912828
 P1 0.989213 0.699722 0.66212  0.8912828
 P1 0.489202 0.199733 0.66212  0.8912828
 P1 0.489203 0.699723 0.66212  0.8912828
 H1 0.062543 0.029525 0.29108  0.1024678
 H1 0.062538 0.529512 0.29109  0.1024678
 H1 0.562532 0.029525 0.2910  0.1024678
 H1 0.562527 0.529513 0.29109  0.1024678
 H1 0.099444 0.473968 0.21520  0.1024678
 H1 0.099448 0.973958 0.21519  0.1024678
 H1 0.599435 0.473967 0.21520  0.1024678
 H1 0.599439 0.973957 0.21519  0.1024678
 H1 0.441816 0.161334 0.14287  0.1024678
 H1 0.441812 0.66132 0.14287  0.1024678
 H1 0.941807 0.161332 0.14287  0.1024678
 H1 0.941802 0.661319 0.14287  0.1024678
 H1 0.465597 0.143459 0.2460  0.1024678
 H1 0.465592 0.643447 0.24603  0.1024678
 H1 0.965588 0.143459 0.24602  0.1024678
 H1 0.965582 0.643446 0.24603  0.1024678
 H1 0.06064 0.499067 0.04629  0.1024678
 H1 0.060642 0.999058 0.04628  0.1024678
 H1 0.560631 0.499065 0.04629  0.1024678
 H1 0.560633 0.999056 0.04628  0.1024678
 H1 0.000947 0.070341 0.01764  0.1024678
 H1 0.000944 0.570327 0.01765  0.1024678
 H1 0.500935 0.070343 0.01764  0.1024678
 H1 0.500933 0.570328 0.0176  0.1024678
 H1 0.26195 0.082758 0.12111  0.1024678
 H1 0.261947 0.582746 0.12112  0.1024678
 H1 0.761946 0.082761 0.12111  0.1024678
 H1 0.761941 0.582747 0.12112  0.1024678
 H1 0.206028 0.007248 0.11376  0.1024678
 H1 0.206025 0.507234 0.11377  0.1024678
 H1 0.706016 0.007246 0.11376  0.1024678
 H1 0.706013 0.507233 0.11377  0.1024678
 H1 0.065465 0.174563 0.04766  0.1024678
 H1 0.06546 0.67455 0.04767  0.1024678
 H1 0.565451 0.174563 0.04766  0.1024678
 H1 0.565449 0.674549 0.04767  0.1024678
 H1 0.18002 0.180324 0.08289  0.1024678
 H1 0.180016 0.680312 0.08290  0.1024678
 H1 0.680016 0.180327 0.08289  0.1024678
 H1 0.680011 0.680313 0.08290  0.1024678
 H1 0.123993 0.138968 0.29185  0.1024678
 H1 0.123986 0.638956 0.29186  0.1024678
 H1 0.623982 0.138969 0.29186  0.1024678
 H1 0.623976 0.638957 0.29186  0.1024678
 H1 0.213393 0.159199 0.22446  0.1024678
 H1 0.213388 0.659186 0.22446  0.1024678
 H1 0.713386 0.1592 0.22446  0.1024678
 H1 0.71338 0.659187 0.22446  0.1024678
 H1 0.312521 0.279523 0.20892  0.1024678
 H1 0.31251 0.77951 0.20892  0.1024678
 H1 0.812511 0.279523 0.20892  0.1024678
 H1 0.812502 0.77951 0.20892  0.1024678
 H1 0.349444 0.22397 0.28481  0.1024678
 H1 0.349436 0.723961 0.2848  0.1024678
 H1 0.849434 0.22397 0.28481  0.1024678
 H1 0.849426 0.723962 0.28482  0.1024678
 H1 0.191853 0.41132 0.35714  0.1024678
 H1 0.191834 0.911311 0.35713  0.1024678
 H1 0.691843 0.41132 0.35714  0.1024678
 H1 0.691824 0.911311 0.35713  0.1024678
 H1 0.215605 0.393457 0.25399  0.1024678
 H1 0.215588 0.893444 0.25398  0.1024678
 H1 0.715595 0.393457 0.2539  0.1024678
 H1 0.71558 0.893444 0.25398  0.1024678
 H1 0.310682 0.249052 0.45372  0.1024678
 H1 0.31067 0.74905 0.45372  0.1024678
 H1 0.810672 0.249052 0.45372  0.1024678
 H1 0.810659 0.749052 0.45372  0.1024678
 H1 0.250998 0.320313 0.48236  0.1024678
 H1 0.250982 0.820312 0.48236  0.1024678
 H1 0.750988 0.320314 0.48236  0.1024678
 H1 0.750972 0.820312 0.48236  0.1024678
 H1 0.011989 0.332733 0.37889  0.1024678
 H1 0.011972 0.832733 0.37889  0.1024678
 H1 0.511978 0.332732 0.37889  0.1024678
 H1 0.511964 0.832734 0.37889  0.1024678
 H1 0.456049 0.257223 0.38623  0.1024678
 H1 0.456039 0.757221 0.3862  0.1024678
 H1 0.956039 0.257223 0.38623  0.1024678
 H1 0.956029 0.757223 0.38624  0.1024678
 H1 0.315518 0.424536 0.45234  0.1024678
 H1 0.315496 0.924535 0.45233  0.1024678
 H1 0.815508 0.424536 0.45234  0.1024678
 H1 0.815486 0.924535 0.45233  0.1024678
 H1 0.430068 0.430297 0.41711  0.1024678
 H1 0.430048 0.930298 0.41710  0.1024678
 H1 0.930058 0.430298 0.41711  0.1024678
 H1 0.930035 0.930298 0.41710  0.1024678
 H1 0.373979 0.388965 0.20815  0.1024678
 H1 0.373961 0.888954 0.20814  0.1024678
 H1 0.873969 0.388965 0.20815  0.1024678
 H1 0.873953 0.888954 0.20814  0.1024678
 H1 0.463398 0.409185 0.27555  0.1024678
 H1 0.46338 0.90918 0.27554  0.1024678
 H1 0.963388 0.409185 0.27555  0.1024678
 H1 0.96337 0.90918 0.27554  0.1024678
 H1 0.31251 0.470464 0.70892  0.1024678
 H1 0.312501 0.970453 0.70893  0.1024678
 H1 0.812501 0.470463 0.70892  0.1024678
 H1 0.812491 0.970454 0.70893  0.1024678
 H1 0.349439 0.026022 0.78482  0.1024678
 H1 0.349444 0.526015 0.78481  0.1024678
 H1 0.849427 0.026023 0.78482  0.1024678
 H1 0.849437 0.526014 0.78482  0.1024678
 H1 0.191831 0.338656 0.85716  0.1024678
 H1 0.191809 0.838642 0.85715  0.1024678
 H1 0.691819 0.338655 0.85716  0.1024678
 H1 0.691802 0.838642 0.85715  0.1024678
 H1 0.215582 0.356526 0.75400  0.1024678
 H1 0.215564 0.856517 0.75399  0.1024678
 H1 0.71557 0.356526 0.75400  0.1024678
 H1 0.715556 0.856517 0.75399  0.1024678
 H1 0.310676 0.000923 0.95373  0.1024678
 H1 0.310688 0.500922 0.9537  0.1024678
 H1 0.810666 0.000923 0.95373  0.1024678
 H1 0.810679 0.500922 0.95373  0.1024678
 H1 0.250996 0.429659 0.9823  0.1024678
 H1 0.250976 0.929636 0.98237  0.1024678
 H1 0.750982 0.429656 0.98238  0.1024678
 H1 0.750969 0.929638 0.98237  0.1024678
 H1 0.011982 0.417247 0.87889  0.1024678
 H1 0.011964 0.917228 0.87889  0.1024678
 H1 0.511969 0.417253 0.87889  0.1024678
 H1 0.511955 0.917224 0.878  0.1024678
 H1 0.456051 0.49276 0.88623  0.1024678
 H1 0.456039 0.992736 0.88624  0.1024678
 H1 0.95604 0.492757 0.88624  0.1024678
 H1 0.95603 0.992738 0.88624  0.1024678
 H1 0.315499 0.325439 0.95236  0.1024678
 H1 0.31547 0.825416 0.95235  0.1024678
 H1 0.815483 0.325437 0.95236  0.1024678
 H1 0.815465 0.825417 0.95235  0.1024678
 H1 0.430046 0.319683 0.91712  0.1024678
 H1 0.430023 0.819655 0.9171  0.1024678
 H1 0.930036 0.319678 0.91712  0.1024678
 H1 0.930013 0.81966 0.91711  0.1024678
 H1 0.373952 0.361025 0.70816  0.1024678
 H1 0.373936 0.861011 0.70815  0.1024678
 H1 0.873942 0.361023 0.70816  0.1024678
 H1 0.873927 0.861013 0.70815  0.1024678
 H1 0.463375 0.340802 0.77555  0.1024678
 H1 0.463356 0.840782 0.77555  0.1024678
 H1 0.963364 0.340799 0.77555  0.1024678
 H1 0.963347 0.840784 0.77555  0.1024678
 H1 0.062529 0.220463 0.79111  0.1024678
 H1 0.062532 0.72045 0.79110  0.1024678
 H1 0.562518 0.220463 0.79111  0.1024678
 H1 0.562521 0.72045 0.79110  0.1024678
 H1 0.099443 0.27602 0.71522  0.1024678
 H1 0.099446 0.776006 0.71521  0.1024678
 H1 0.599436 0.276019 0.71522  0.1024678
 H1 0.599435 0.776008 0.71521  0.1024678
 H1 0.441791 0.088667 0.64289  0.1024678
 H1 0.441799 0.588655 0.64288  0.1024678
 H1 0.941784 0.088668 0.64289  0.1024678
 H1 0.941786 0.588654 0.64288  0.1024678
 H1 0.465573 0.106532 0.74604  0.1024678
 H1 0.465581 0.606519 0.7460  0.1024678
 H1 0.965567 0.106532 0.74604  0.1024678
 H1 0.965568 0.606519 0.74604  0.1024678
 H1 0.060642 0.25094 0.54631  0.1024678
 H1 0.060643 0.750926 0.54630  0.1024678
 H1 0.560632 0.250939 0.54631  0.1024678
 H1 0.560632 0.750929 0.54630  0.1024678
 H1 0.000938 0.179678 0.51766  0.1024678
 H1 0.000939 0.679664 0.51766  0.1024678
 H1 0.500925 0.179674 0.51766  0.1024678
 H1 0.50093 0.679666 0.51766  0.1024678
 H1 0.26194 0.167263 0.62114  0.1024678
 H1 0.261943 0.667247 0.62113  0.1024678
 H1 0.761933 0.167255 0.62114  0.1024678
 H1 0.761934 0.667252 0.62113  0.1024678
 H1 0.20602 0.242765 0.61380  0.1024678
 H1 0.206023 0.742755 0.61379  0.1024678
 H1 0.70601 0.242765 0.61379  0.1024678
 H1 0.706012 0.742758 0.61379  0.1024678
 H1 0.065447 0.075458 0.54768  0.1024678
 H1 0.065443 0.575443 0.54768  0.1024678
 H1 0.565428 0.075455 0.54768  0.1024678
 H1 0.565438 0.575446 0.54767  0.1024678
 H1 0.179998 0.069693 0.58291  0.1024678
 H1 0.180002 0.569679 0.58291  0.1024678
 H1 0.67999 0.069688 0.58291  0.1024678
 H1 0.679995 0.569683 0.58290  0.1024678
 H1 0.123972 0.111024 0.79187  0.1024678
 H1 0.123973 0.61101 0.79187  0.1024678
 H1 0.623958 0.111022 0.79188  0.1024678
 H1 0.623966 0.611011 0.79187  0.1024678
 H1 0.21337 0.090805 0.72448  0.1024678
 H1 0.213373 0.590791 0.72447  0.1024678
 H1 0.713359 0.090802 0.72448  0.1024678
 H1 0.713366 0.590794 0.72447  0.1024678
 C1 0.083768 0.02482 0.22769  -0.345220533333
 C1 0.083763 0.524807 0.22769  -0.345220533333
 C1 0.583756 0.024818 0.22769  -0.345220533333
 C1 0.583752 0.524806 0.22770  -0.345220533333
 C1 0.489544 0.136518 0.18363  -0.345220533333
 C1 0.489541 0.636504 0.18364  -0.345220533333
 C1 0.989538 0.136516 0.18363  -0.345220533333
 C1 0.989534 0.636504 0.18364  -0.345220533333
 C1 0.045951 0.049104 0.06399  -0.345220533333
 C1 0.045949 0.549091 0.06  -0.345220533333
 C1 0.545937 0.049102 0.0639  -0.345220533333
 C1 0.545936 0.549089 0.06399  -0.345220533333
 C2 0.19587 0.058431 0.12726  0.0299428
 C2 0.195868 0.558417 0.12727  0.0299428
 C2 0.695869 0.058431 0.1272  0.0299428
 C2 0.695863 0.558417 0.12726  0.0299428
 C2 0.115525 0.153908 0.08961  0.0299428
 C2 0.11552 0.653896 0.08961  0.0299428
 C2 0.61552 0.153912 0.08960  0.0299428
 C2 0.615515 0.653898 0.08961  0.0299428
 C2 0.148374 0.133423 0.22979  0.0299428
 C2 0.148368 0.633411 0.22980  0.0299428
 C2 0.648366 0.133425 0.22979  0.0299428
 C2 0.64836 0.633412 0.22980  0.0299428
 C1 0.333762 0.27481 0.27231  -0.345220533333
 C1 0.333751 0.774801 0.27231  -0.345220533333
 C1 0.833752 0.27481 0.27231  -0.345220533333
 C1 0.833742 0.774802 0.2723  -0.345220533333
 C1 0.239571 0.386507 0.3163  -0.345220533333
 C1 0.239554 0.886498 0.31637  -0.345220533333
 C1 0.73956 0.386507 0.3163  -0.345220533333
 C1 0.739545 0.886497 0.31637  -0.345220533333
 C1 0.295986 0.299078 0.43602  -0.345220533333
 C1 0.295973 0.799075 0.4360  -0.345220533333
 C1 0.795976 0.299078 0.43602  -0.345220533333
 C1 0.795963 0.799077 0.43601  -0.345220533333
 C2 0.445895 0.308409 0.37274  0.0299428
 C2 0.445884 0.808406 0.37274  0.0299428
 C2 0.945886 0.308409 0.37274  0.0299428
 C2 0.94587 0.808407 0.37274  0.0299428
 C2 0.365569 0.403884 0.41040  0.0299428
 C2 0.36555 0.903884 0.410  0.0299428
 C2 0.865559 0.403885 0.41040  0.0299428
 C2 0.865538 0.903883 0.41039  0.0299428
 C2 0.398375 0.383413 0.27022  0.0299428
 C2 0.398359 0.883406 0.27021  0.0299428
 C2 0.898365 0.383413 0.27022  0.0299428
 C2 0.898348 0.883405 0.27021  0.0299428
 C1 0.333754 0.475175 0.77232  -0.345220533333
 C1 0.333745 0.975161 0.77232  -0.345220533333
 C1 0.833745 0.475175 0.77232  -0.345220533333
 C1 0.833735 0.975161 0.77232  -0.345220533333
 C1 0.23955 0.363473 0.81639  -0.345220533333
 C1 0.23953 0.863458 0.81638  -0.345220533333
 C1 0.739536 0.363471 0.81639  -0.345220533333
 C1 0.739524 0.863459 0.81638  -0.345220533333
 C1 0.295986 0.450897 0.93602  -0.345220533333
 C1 0.295967 0.950876 0.93603  -0.345220533333
 C1 0.795971 0.450897 0.93603  -0.345220533333
 C1 0.795961 0.950876 0.93602  -0.345220533333
 C2 0.445889 0.441575 0.87274  0.0299428
 C2 0.445879 0.941551 0.87275  0.0299428
 C2 0.945883 0.441571 0.87275  0.0299428
 C2 0.945866 0.941554 0.87275  0.0299428
 C2 0.36555 0.346094 0.91041  0.0299428
 C2 0.365529 0.846069 0.91041  0.0299428
 C2 0.86554 0.346089 0.91041  0.0299428
 C2 0.865519 0.846072 0.91041  0.0299428
 C2 0.398355 0.366573 0.77022  0.0299428
 C2 0.398339 0.866555 0.77022  0.0299428
 C2 0.898345 0.366571 0.77022  0.0299428
 C2 0.89833 0.866558 0.77022  0.0299428
 C1 0.083755 0.225179 0.72771  -0.345220533333
 C1 0.083759 0.725165 0.72771  -0.345220533333
 C1 0.583745 0.225179 0.72772  -0.345220533333
 C1 0.583748 0.725166 0.72771  -0.345220533333
 C1 0.489521 0.11348 0.68365  -0.345220533333
 C1 0.489531 0.613469 0.68364  -0.345220533333
 C1 0.989516 0.113482 0.68365  -0.345220533333
 C1 0.989518 0.613468 0.68365  -0.345220533333
 C1 0.045941 0.200913 0.56401  -0.345220533333
 C1 0.045942 0.700899 0.56401  -0.345220533333
 C1 0.545928 0.200912 0.56401  -0.345220533333
 C1 0.545933 0.700902 0.56401  -0.345220533333
 C2 0.195858 0.191579 0.62729  0.0299428
 C2 0.195865 0.691569 0.62728  0.0299428
 C2 0.695856 0.191578 0.62728  0.0299428
 C2 0.695855 0.691572 0.62728  0.0299428
 C2 0.11551 0.096109 0.58963  0.0299428
 C2 0.115511 0.596093 0.58962  0.0299428
 C2 0.6155 0.096102 0.58962  0.0299428
 C2 0.615504 0.596096 0.58962  0.0299428
 C2 0.148353 0.116578 0.72980  0.0299428
 C2 0.148356 0.616563 0.72980  0.0299428
 C2 0.648343 0.116574 0.72981  0.0299428
 C2 0.648348 0.616565 0.72980  0.0299428
 N1 0.166446 0.064689 0.21270  -0.0523705333333
 N1 0.166439 0.564678 0.2127  -0.0523705333333
 N1 0.666427 0.064692 0.21269  -0.0523705333333
 N1 0.666424 0.564679 0.21270  -0.0523705333333
 N1 0.131606 0.086365 0.06953  -0.0523705333333
 N1 0.131603 0.586352 0.06954  -0.0523705333333
 N1 0.631589 0.086364 0.06954  -0.0523705333333
 N1 0.631588 0.586351 0.06955  -0.0523705333333
 N1 0.082561 0.163984 0.17362  -0.0523705333333
 N1 0.082557 0.663969 0.17363  -0.0523705333333
 N1 0.582551 0.163975 0.17362  -0.0523705333333
 N1 0.582547 0.663964 0.17362  -0.0523705333333
 N1 0.416444 0.314677 0.28730  -0.0523705333333
 N1 0.416428 0.814671 0.2873  -0.0523705333333
 N1 0.916433 0.314677 0.2873  -0.0523705333333
 N1 0.916422 0.814671 0.28730  -0.0523705333333
 N1 0.381642 0.336336 0.43047  -0.0523705333333
 N1 0.381626 0.836336 0.43046  -0.0523705333333
 N1 0.881631 0.336337 0.4304  -0.0523705333333
 N1 0.881617 0.836337 0.43046  -0.0523705333333
 N1 0.332579 0.413967 0.32639  -0.0523705333333
 N1 0.332562 0.913958 0.32638  -0.0523705333333
 N1 0.832569 0.413966 0.32639  -0.0523705333333
 N1 0.832551 0.913961 0.32638  -0.0523705333333
 N1 0.416431 0.435309 0.78731  -0.0523705333333
 N1 0.416415 0.935289 0.7873  -0.0523705333333
 N1 0.916417 0.435306 0.78731  -0.0523705333333
 N1 0.916409 0.935292 0.78731  -0.0523705333333
 N1 0.381636 0.413641 0.93047  -0.0523705333333
 N1 0.381613 0.913617 0.93047  -0.0523705333333
 N1 0.881618 0.413639 0.93047  -0.0523705333333
 N1 0.881609 0.913618 0.93047  -0.0523705333333
 N1 0.332556 0.336016 0.82640  -0.0523705333333
 N1 0.332536 0.836003 0.82639  -0.0523705333333
 N1 0.832543 0.336019 0.82640  -0.0523705333333
 N1 0.832528 0.836 0.82639  -0.0523705333333
 N1 0.166431 0.185316 0.71273  -0.0523705333333
 N1 0.166431 0.6853 0.71272  -0.0523705333333
 N1 0.666413 0.185311 0.71272  -0.0523705333333
 N1 0.666422 0.685303 0.71272  -0.0523705333333
 N1 0.131591 0.163656 0.5695  -0.0523705333333
 N1 0.131591 0.663641 0.56956  -0.0523705333333
 N1 0.631574 0.163652 0.5695  -0.0523705333333
 N1 0.631583 0.663645 0.56955  -0.0523705333333
 N1 0.082535 0.086019 0.67364  -0.0523705333333
 N1 0.082539 0.58601 0.67363  -0.0523705333333
 N1 0.582524 0.086026 0.67364  -0.0523705333333
 N1 0.582532 0.586011 0.67363  -0.0523705333333
 O1 0.39875 0.516378 0.17031  -0.5459672
 O1 0.398755 0.0 0.17031  -0.5459672
 O1 0.898737 0.516376 0.17031  -0.5459672
 O1 0.89874 0.0 0.17031  -0.5459672
 O1 0.148769 0.266382 0.32969  -0.5459672
 O1 0.14876 0.766371 0.32969  -0.5459672
 O1 0.64876 0.266382 0.32969  -0.5459672
 O1 0.648749 0.766371 0.32969  -0.5459672
 O1 0.148761 0.983606 0.8297  -0.5459672
 O1 0.148768 0.483595 0.82970  -0.5459672
 O1 0.648748 0.983606 0.8297  -0.5459672
 O1 0.648761 0.483594 0.8297  -0.5459672
 O1 0.398748 0.233604 0.67033  -0.5459672
 O1 0.398748 0.733592 0.6703  -0.5459672
 O1 0.898734 0.233605 0.67033  -0.5459672
 O1 0.898738 0.733593 0.6703  -0.5459672
