#======================================================================

# CRYSTAL DATA

#----------------------------------------------------------------------

data_VESTA_phase_1


_pd_phase_name                         MOF
_cell_length_a                         12.59900
_cell_length_b                         17.29200
_cell_length_c                         19.29400
_cell_angle_alpha                      65.18100
_cell_angle_beta                       84.55000
_cell_angle_gamma                      83.65900
_symmetry_space_group_name_H-M         "P 1"
_symmetry_Int_Tables_number            1

loop_
_symmetry_equiv_pos_as_xyz
   "x, y, z"

loop_
   _atom_site_label
   _atom_site_fract_x
   _atom_site_fract_y
   _atom_site_fract_z
 _atom_site_charge
 Ba1 0.35994 0.235291 0.3501  1.59801785714
 Ba1 0.359938 0.235296 0.85014  1.59801785714
 Ba1 0.359939 0.735306 0.3501  1.59801785714
 Ba1 0.359935 0.735311 0.85014  1.59801785714
 Ba1 0.859938 0.235291 0.3501  1.59801785714
 Ba1 0.859934 0.235296 0.85014  1.59801785714
 Ba1 0.859934 0.735306 0.35015  1.59801785714
 Ba1 0.859932 0.735311 0.85014  1.59801785714
 Ba2 0.392962 0.431339 0.46672  1.66259785714
 Ba2 0.392958 0.431344 0.96671  1.66259785714
 Ba2 0.392959 0.931354 0.46672  1.66259785714
 Ba2 0.392957 0.931358 0.96671  1.66259785714
 Ba2 0.892959 0.431339 0.46672  1.66259785714
 Ba2 0.892955 0.431344 0.96671  1.66259785714
 Ba2 0.892957 0.931354 0.46672  1.66259785714
 Ba2 0.892953 0.931358 0.96671  1.66259785714
 Ba1 0.14005 0.264728 0.14984  1.59801785714
 Ba1 0.140047 0.264733 0.64983  1.59801785714
 Ba1 0.140047 0.764743 0.14984  1.59801785714
 Ba1 0.140043 0.764747 0.64983  1.59801785714
 Ba1 0.640046 0.264728 0.14984  1.59801785714
 Ba1 0.640042 0.264733 0.64983  1.59801785714
 Ba1 0.640045 0.764743 0.14984  1.59801785714
 Ba1 0.640041 0.764747 0.64983  1.59801785714
 Ba2 0.107028 0.068681 0.03327  1.66259785714
 Ba2 0.107025 0.068686 0.53326  1.66259785714
 Ba2 0.107027 0.568695 0.03327  1.66259785714
 Ba2 0.107022 0.568701 0.53326  1.66259785714
 Ba2 0.607025 0.068681 0.03327  1.66259785714
 Ba2 0.607022 0.068686 0.53326  1.66259785714
 Ba2 0.607023 0.568695 0.03327  1.66259785714
 Ba2 0.607019 0.568701 0.53326  1.66259785714
 C1 0.091182 0.294137 0.4133  0.577532857143
 C1 0.091177 0.294136 0.91335  0.577532857143
 C1 0.091177 0.794137 0.41337  0.577532857143
 C1 0.091177 0.794158 0.9133  0.577532857143
 C1 0.591178 0.294129 0.41336  0.577532857143
 C1 0.591175 0.294139 0.91335  0.577532857143
 C1 0.591176 0.794146 0.41336  0.577532857143
 C1 0.591173 0.794158 0.91335  0.577532857143
 C1 0.162763 0.341857 0.44080  0.577532857143
 C1 0.162759 0.341868 0.9407  0.577532857143
 C1 0.162758 0.841888 0.44078  0.577532857143
 C1 0.162757 0.841875 0.94079  0.577532857143
 C1 0.662758 0.341866 0.44079  0.577532857143
 C1 0.662755 0.341866 0.94079  0.577532857143
 C1 0.662757 0.841878 0.44079  0.577532857143
 C1 0.662754 0.841876 0.94079  0.577532857143
 C2 0.070651 0.109266 0.34103  0.555627857143
 C2 0.070647 0.10927 0.84103  0.555627857143
 C2 0.070649 0.60928 0.34103  0.555627857143
 C2 0.070645 0.609285 0.84103  0.555627857143
 C2 0.570648 0.109265 0.34103  0.555627857143
 C2 0.570644 0.10927 0.84103  0.555627857143
 C2 0.570645 0.60928 0.34103  0.555627857143
 C2 0.570641 0.609285 0.84103  0.555627857143
 C2 0.194647 0.106306 0.34236  0.555627857143
 C2 0.194643 0.106311 0.84235  0.555627857143
 C2 0.194645 0.606322 0.34236  0.555627857143
 C2 0.194641 0.606326 0.84235  0.555627857143
 C2 0.694644 0.106307 0.34236  0.555627857143
 C2 0.69464 0.106311 0.84235  0.555627857143
 C2 0.694641 0.606321 0.34236  0.555627857143
 C2 0.694638 0.606326 0.84235  0.555627857143
 C1 0.408809 0.205884 0.08663  0.577532857143
 C1 0.408805 0.205883 0.5866  0.577532857143
 C1 0.408808 0.705909 0.08661  0.577532857143
 C1 0.408803 0.705901 0.58662  0.577532857143
 C1 0.908806 0.205886 0.08662  0.577532857143
 C1 0.908803 0.205893 0.58661  0.577532857143
 C1 0.908803 0.705898 0.08663  0.577532857143
 C1 0.908799 0.705897 0.5866  0.577532857143
 C1 0.337228 0.158161 0.0591  0.577532857143
 C1 0.337223 0.158173 0.55917  0.577532857143
 C1 0.337227 0.658164 0.059  0.577532857143
 C1 0.337223 0.658183 0.55917  0.577532857143
 C1 0.837225 0.158158 0.05919  0.577532857143
 C1 0.837222 0.158161 0.55918  0.577532857143
 C1 0.837222 0.658176 0.05918  0.577532857143
 C1 0.837218 0.658188 0.55917  0.577532857143
 C2 0.42934 0.390754 0.15895  0.555627857143
 C2 0.429336 0.390759 0.65894  0.555627857143
 C2 0.429338 0.890769 0.15895  0.555627857143
 C2 0.429334 0.890774 0.65894  0.555627857143
 C2 0.929337 0.390754 0.15895  0.555627857143
 C2 0.929333 0.39076 0.65894  0.555627857143
 C2 0.929334 0.890769 0.15895  0.555627857143
 C2 0.929331 0.890774 0.65894  0.555627857143
 C2 0.305344 0.393713 0.15762  0.555627857143
 C2 0.30534 0.393718 0.6576  0.555627857143
 C2 0.305341 0.893727 0.15762  0.555627857143
 C2 0.305338 0.893733 0.6576  0.555627857143
 C2 0.80534 0.393713 0.15762  0.555627857143
 C2 0.805337 0.393718 0.6576  0.555627857143
 C2 0.805338 0.893728 0.15762  0.555627857143
 C2 0.805334 0.893733 0.6576  0.555627857143
 O1 0.493733 0.321384 0.40368  -0.67305047619
 O1 0.493728 0.321389 0.90367  -0.67305047619
 O1 0.49373 0.821398 0.40368  -0.67305047619
 O1 0.493725 0.821405 0.9036  -0.67305047619
 O1 0.993727 0.321384 0.40367  -0.67305047619
 O1 0.993725 0.321389 0.90367  -0.67305047619
 O1 0.993728 0.821397 0.40368  -0.67305047619
 O1 0.993722 0.821405 0.9036  -0.67305047619
 O1 0.134816 0.228227 0.40526  -0.67305047619
 O1 0.134813 0.22823 0.90525  -0.67305047619
 O1 0.134814 0.728237 0.40526  -0.67305047619
 O1 0.13481 0.728247 0.90525  -0.67305047619
 O1 0.634813 0.228224 0.40526  -0.67305047619
 O1 0.634809 0.228231 0.90525  -0.67305047619
 O1 0.634811 0.72824 0.40526  -0.67305047619
 O1 0.634807 0.728248 0.90525  -0.67305047619
 O1 0.119696 0.370233 0.48870  -0.67305047619
 O1 0.119692 0.370238 0.98869  -0.67305047619
 O1 0.119693 0.870248 0.48870  -0.67305047619
 O1 0.11969 0.870252 0.98870  -0.67305047619
 O1 0.619692 0.370233 0.48870  -0.67305047619
 O1 0.619689 0.370238 0.988  -0.67305047619
 O1 0.61969 0.870248 0.48870  -0.67305047619
 O1 0.619687 0.870252 0.98870  -0.67305047619
 O1 0.259738 0.346896 0.41563  -0.67305047619
 O1 0.259735 0.346902 0.9156  -0.67305047619
 O1 0.259739 0.846915 0.41563  -0.67305047619
 O1 0.25973 0.846914 0.91563  -0.67305047619
 O1 0.759736 0.346898 0.41563  -0.67305047619
 O1 0.759731 0.346901 0.9156  -0.67305047619
 O1 0.759733 0.846913 0.41563  -0.67305047619
 O1 0.759728 0.846915 0.91563  -0.67305047619
 O2 0.018411 0.06997 0.40440  -0.744317142857
 O2 0.018407 0.069974 0.904  -0.744317142857
 O2 0.018409 0.569984 0.40440  -0.744317142857
 O2 0.018405 0.569989 0.904  -0.744317142857
 O2 0.518408 0.069969 0.40440  -0.744317142857
 O2 0.518404 0.069974 0.904  -0.744317142857
 O2 0.518405 0.569984 0.40440  -0.744317142857
 O2 0.518402 0.569989 0.904  -0.744317142857
 O1 0.028116 0.155279 0.27887  -0.67305047619
 O1 0.028112 0.155284 0.77886  -0.67305047619
 O1 0.028114 0.655294 0.27887  -0.67305047619
 O1 0.02811 0.655298 0.77886  -0.67305047619
 O1 0.528113 0.155279 0.27887  -0.67305047619
 O1 0.528109 0.155284 0.77886  -0.67305047619
 O1 0.52811 0.655294 0.27887  -0.67305047619
 O1 0.528107 0.655299 0.77886  -0.67305047619
 O2 0.236881 0.064381 0.40667  -0.744317142857
 O2 0.236877 0.064386 0.90666  -0.744317142857
 O2 0.236879 0.564395 0.40667  -0.744317142857
 O2 0.236875 0.564401 0.90666  -0.744317142857
 O2 0.736878 0.064381 0.40667  -0.744317142857
 O2 0.736874 0.064386 0.90666  -0.744317142857
 O2 0.736876 0.564395 0.40667  -0.744317142857
 O2 0.736872 0.564401 0.90666  -0.744317142857
 O1 0.244721 0.150901 0.28106  -0.67305047619
 O1 0.244717 0.150906 0.78105  -0.67305047619
 O1 0.244718 0.650916 0.28106  -0.67305047619
 O1 0.244715 0.650921 0.78105  -0.67305047619
 O1 0.744717 0.150901 0.28106  -0.67305047619
 O1 0.744714 0.150906 0.78105  -0.67305047619
 O1 0.744715 0.650916 0.28106  -0.67305047619
 O1 0.744711 0.650921 0.78105  -0.67305047619
 O1 0.006259 0.178635 0.09631  -0.67305047619
 O1 0.006255 0.17864 0.59630  -0.67305047619
 O1 0.006257 0.67865 0.09631  -0.67305047619
 O1 0.006255 0.678653 0.59630  -0.67305047619
 O1 0.506256 0.178635 0.09631  -0.67305047619
 O1 0.506254 0.178639 0.59630  -0.67305047619
 O1 0.506252 0.678651 0.0963  -0.67305047619
 O1 0.50625 0.678653 0.59630  -0.67305047619
 O1 0.365175 0.271793 0.09472  -0.67305047619
 O1 0.365171 0.271795 0.5947  -0.67305047619
 O1 0.365172 0.771811 0.09472  -0.67305047619
 O1 0.365169 0.771811 0.59472  -0.67305047619
 O1 0.865171 0.271793 0.09472  -0.67305047619
 O1 0.865168 0.271799 0.59471  -0.67305047619
 O1 0.865169 0.771807 0.09472  -0.67305047619
 O1 0.865166 0.77181 0.59472  -0.67305047619
 O1 0.380295 0.129787 0.01128  -0.67305047619
 O1 0.380291 0.129792 0.51127  -0.67305047619
 O1 0.380293 0.629801 0.01128  -0.67305047619
 O1 0.380289 0.629807 0.51127  -0.67305047619
 O1 0.880292 0.129787 0.01128  -0.67305047619
 O1 0.880288 0.129792 0.51127  -0.67305047619
 O1 0.880289 0.629801 0.01128  -0.67305047619
 O1 0.880285 0.629807 0.51127  -0.67305047619
 O1 0.240253 0.153123 0.08435  -0.67305047619
 O1 0.240251 0.15313 0.58434  -0.67305047619
 O1 0.240248 0.653135 0.08435  -0.67305047619
 O1 0.240248 0.653145 0.58434  -0.67305047619
 O1 0.740249 0.153123 0.08435  -0.67305047619
 O1 0.740246 0.153128 0.58434  -0.67305047619
 O1 0.740248 0.653138 0.08435  -0.67305047619
 O1 0.740245 0.653145 0.58434  -0.67305047619
 O2 0.48158 0.43005 0.09558  -0.744317142857
 O2 0.481576 0.430055 0.59557  -0.744317142857
 O2 0.481577 0.930065 0.09558  -0.744317142857
 O2 0.481574 0.93007 0.59557  -0.744317142857
 O2 0.981577 0.43005 0.09558  -0.744317142857
 O2 0.981573 0.430055 0.59557  -0.744317142857
 O2 0.981574 0.930065 0.09558  -0.744317142857
 O2 0.981571 0.93007 0.59557  -0.744317142857
 O1 0.471875 0.344741 0.22111  -0.67305047619
 O1 0.471871 0.344745 0.72110  -0.67305047619
 O1 0.471872 0.844755 0.22111  -0.67305047619
 O1 0.471869 0.84476 0.72110  -0.67305047619
 O1 0.971871 0.34474 0.22111  -0.67305047619
 O1 0.971868 0.344745 0.72110  -0.67305047619
 O1 0.971869 0.844755 0.22111  -0.67305047619
 O1 0.971866 0.84476 0.72110  -0.67305047619
 O2 0.26311 0.435638 0.09331  -0.744317142857
 O2 0.263106 0.435643 0.5933  -0.744317142857
 O2 0.263107 0.935653 0.09331  -0.744317142857
 O2 0.263104 0.935658 0.5933  -0.744317142857
 O2 0.763106 0.435639 0.09331  -0.744317142857
 O2 0.763103 0.435643 0.5933  -0.744317142857
 O2 0.763104 0.935653 0.09331  -0.744317142857
 O2 0.763101 0.935658 0.5933  -0.744317142857
 O1 0.25527 0.349119 0.21892  -0.67305047619
 O1 0.255267 0.349123 0.71891  -0.67305047619
 O1 0.255268 0.849133 0.21892  -0.67305047619
 O1 0.255264 0.849138 0.71891  -0.67305047619
 O1 0.755267 0.349118 0.21892  -0.67305047619
 O1 0.755263 0.349123 0.71891  -0.67305047619
 O1 0.755264 0.849133 0.21892  -0.67305047619
 O1 0.755261 0.849138 0.71891  -0.67305047619
