#======================================================================

# CRYSTAL DATA

#----------------------------------------------------------------------

data_VESTA_phase_1


_pd_phase_name                         MOF
_cell_length_a                         10.24600
_cell_length_b                         21.66700
_cell_length_c                         12.26900
_cell_angle_alpha                      90.12600
_cell_angle_beta                       90.07700
_cell_angle_gamma                      93.86300
_symmetry_space_group_name_H-M         "P 1"
_symmetry_Int_Tables_number            1

loop_
_symmetry_equiv_pos_as_xyz
   "x, y, z"

loop_
   _atom_site_label
   _atom_site_fract_x
   _atom_site_fract_y
   _atom_site_fract_z
 _atom_site_charge
 Al1 0.999423 0.999919 0.49999  1.907014375
 Al1 4.8e-05 0.499788 0.50005  1.907014375
 Al1 0.499335 0.999096 0.50001  1.907014375
 Al1 0.500007 0.499878 0.5000  1.907014375
 Al1 0.00016 2.8e-05 0.9999  1.907014375
 Al1 1.9e-05 0.500004 2e-0  1.907014375
 Al1 0.500148 4e-05 3.3e-0  1.907014375
 Al1 0.500002 0.500003 1.9e-0  1.907014375
 Al2 0.382343 0.046905 0.74954  2.009354375
 Al2 0.382766 0.547011 0.75021  2.009354375
 Al2 0.882117 0.047552 0.74985  2.009354375
 Al2 0.882772 0.547004 0.75020  2.009354375
 Al2 0.117239 0.452935 0.24979  2.009354375
 Al2 0.117754 0.952435 0.25013  2.009354375
 Al2 0.61722 0.452959 0.24981  2.009354375
 Al2 0.617983 0.952437 0.25006  2.009354375
 P1 0.225504 0.415688 0.47724  1.622604375
 P1 0.226115 0.916178 0.47814  1.622604375
 P1 0.725402 0.415706 0.47726  1.622604375
 P1 0.727029 0.916172 0.47784  1.622604375
 P1 0.273674 0.083962 0.97687  1.622604375
 P1 0.273195 0.583273 0.97779  1.622604375
 P1 0.773623 0.08402 0.97740  1.622604375
 P1 0.773187 0.583271 0.97777  1.622604375
 P1 0.2731 0.083227 0.52147  1.622604375
 P1 0.274527 0.583971 0.52271  1.622604375
 P1 0.772184 0.083204 0.52186  1.622604375
 P1 0.774629 0.583935 0.52266  1.622604375
 P1 0.226816 0.416716 0.02218  1.622604375
 P1 0.226623 0.916026 0.02266  1.622604375
 P1 0.726817 0.416746 0.02222  1.622604375
 P1 0.726606 0.916022 0.02251  1.622604375
 C1 0.245898 0.28048 0.4980  0.054294375
 C1 0.24331 0.78074 0.49702  0.054294375
 C1 0.74478 0.280433 0.49803  0.054294375
 C1 0.745424 0.780786 0.49641  0.054294375
 C2 0.235614 0.336468 0.4942  -0.252720625
 C2 0.233515 0.836753 0.49355  -0.252720625
 C2 0.735091 0.336464 0.49427  -0.252720625
 C2 0.736057 0.83682 0.49283  -0.252720625
 C1 0.255532 0.219442 0.99751  0.054294375
 C1 0.254746 0.718813 0.99688  0.054294375
 C1 0.75554 0.219468 0.99820  0.054294375
 C1 0.754708 0.718812 0.9967  0.054294375
 C2 0.264977 0.16339 0.99304  -0.252720625
 C2 0.26423 0.662754 0.99288  -0.252720625
 C2 0.764973 0.163415 0.99390  -0.252720625
 C2 0.76421 0.662753 0.99283  -0.252720625
 C1 0.256476 0.218762 0.50231  0.054294375
 C1 0.25411 0.719075 0.5014  0.054294375
 C1 0.754829 0.218681 0.50232  0.054294375
 C1 0.755558 0.719087 0.50099  0.054294375
 C2 0.265987 0.162709 0.50570  -0.252720625
 C2 0.264535 0.663117 0.50535  -0.252720625
 C2 0.763928 0.162602 0.50576  -0.252720625
 C2 0.765156 0.663082 0.50516  -0.252720625
 C1 0.245363 0.28119 0.00271  0.054294375
 C1 0.244654 0.780569 0.00185  0.054294375
 C1 0.745375 0.281217 0.00316  0.054294375
 C1 0.744606 0.780567 0.00167  0.054294375
 C2 0.235807 0.33724 0.  -0.252720625
 C2 0.235281 0.836627 0.  -0.252720625
 C2 0.735814 0.33727 0.  -0.252720625
 C2 0.735232 0.836626 0.  -0.252720625
 O1 0.101138 0.433677 0.53339  -0.922972291667
 O1 0.102261 0.934671 0.53455  -0.922972291667
 O1 0.601125 0.433795 0.53342  -0.922972291667
 O1 0.602183 0.933689 0.53380  -0.922972291667
 O1 0.218041 0.423947 0.35139  -0.922972291667
 O1 0.221463 0.925601 0.35243  -0.922972291667
 O1 0.717991 0.423962 0.35141  -0.922972291667
 O1 0.722219 0.925785 0.35217  -0.922972291667
 O1 0.349951 0.447716 0.52316  -0.922972291667
 O1 0.350836 0.946762 0.52642  -0.922972291667
 O1 0.849958 0.447633 0.52318  -0.922972291667
 O1 0.850953 0.947333 0.52668  -0.922972291667
 O1 0.398136 0.066046 0.03315  -0.922972291667
 O1 0.398079 0.56576 0.03398  -0.922972291667
 O1 0.898183 0.066009 0.03337  -0.922972291667
 O1 0.898074 0.565765 0.03396  -0.922972291667
 O1 0.279202 0.074562 0.85111  -0.922972291667
 O1 0.277889 0.573233 0.85218  -0.922972291667
 O1 0.778962 0.074805 0.85158  -0.922972291667
 O1 0.777882 0.573226 0.85216  -0.922972291667
 O1 0.149171 0.052781 0.0238  -0.922972291667
 O1 0.149316 0.552172 0.02626  -0.922972291667
 O1 0.649164 0.05275 0.02423  -0.922972291667
 O1 0.649308 0.552172 0.02624  -0.922972291667
 O1 0.396301 0.064296 0.4646  -0.922972291667
 O1 0.398833 0.565898 0.4666  -0.922972291667
 O1 0.895758 0.064814 0.46484  -0.922972291667
 O1 0.898861 0.565769 0.46658  -0.922972291667
 O1 0.279286 0.074154 0.64722  -0.922972291667
 O1 0.281929 0.575922 0.64860  -0.922972291667
 O1 0.778208 0.074358 0.64766  -0.922972291667
 O1 0.781968 0.575915 0.64856  -0.922972291667
 O1 0.147641 0.052745 0.47420  -0.922972291667
 O1 0.149978 0.552011 0.47688  -0.922972291667
 O1 0.647368 0.052 0.47486  -0.922972291667
 O1 0.649973 0.552063 0.47686  -0.922972291667
 O1 0.101933 0.434249 0.96601  -0.922972291667
 O1 0.102149 0.934051 0.96657  -0.922972291667
 O1 0.601931 0.434252 0.96603  -0.922972291667
 O1 0.602132 0.934087 0.96649  -0.922972291667
 O1 0.222106 0.426743 0.147  -0.922972291667
 O1 0.221107 0.925243 0.14846  -0.922972291667
 O1 0.722116 0.426784 0.14783  -0.922972291667
 O1 0.721113 0.925193 0.1483  -0.922972291667
 O1 0.350698 0.447839 0.97375  -0.922972291667
 O1 0.35113 0.947291 0.975  -0.922972291667
 O1 0.850695 0.447848 0.97375  -0.922972291667
 O1 0.851131 0.947293 0.97581  -0.922972291667
 F1 0.494394 0.021344 0.65249  -0.613445625
 F1 0.493941 0.520118 0.6528  -0.613445625
 F1 0.994825 0.023728 0.6522  -0.613445625
 F1 0.99395 0.520103 0.65286  -0.613445625
 F1 0.005079 0.47745 0.15231  -0.613445625
 F1 0.006052 0.978709 0.15270  -0.613445625
 F1 0.505065 0.477451 0.15231  -0.613445625
 F1 0.506068 0.978704 0.15271  -0.613445625
 F1 0.006079 0.47984 0.34711  -0.613445625
 F1 0.005016 0.976293 0.34775  -0.613445625
 F1 0.506049 0.479857 0.34712  -0.613445625
 F1 0.505095 0.976175 0.34764  -0.613445625
 F1 0.494176 0.021299 0.84731  -0.613445625
 F1 0.494928 0.522556 0.84769  -0.613445625
 F1 0.993966 0.021305 0.84722  -0.613445625
 F1 0.994927 0.522557 0.84769  -0.613445625
