#======================================================================

# CRYSTAL DATA

#----------------------------------------------------------------------

data_VESTA_phase_1


_pd_phase_name                         MOF
_cell_length_a                         14.95000
_cell_length_b                         14.89200
_cell_length_c                         13.08100
_cell_angle_alpha                      90.00000
_cell_angle_beta                       90.00000
_cell_angle_gamma                      90.00000
_symmetry_space_group_name_H-M         "P 1"
_symmetry_Int_Tables_number            1

loop_
_symmetry_equiv_pos_as_xyz
   "x, y, z"

loop_
   _atom_site_label
   _atom_site_fract_x
   _atom_site_fract_y
   _atom_site_fract_z
 _atom_site_charge
 Zn1 7.8e-05 2.1e-05 0.75078  0.94358
 Zn1 4.9e-05 0.50007 0.75071  0.94358
 Zn1 0.500115 0.999983 0.75070  0.94358
 Zn1 0.500074 0.500032 0.75079  0.94358
 Zn1 0.000125 1.8e-05 0.24919  0.94358
 Zn1 0.000105 0.500067 0.24928  0.94358
 Zn1 0.500059 0.999984 0.24927  0.94358
 Zn1 0.50005 0.500034 0.249  0.94358
 Ni1 0.250254 0.998238 0.99992  0.03178
 Ni1 0.250101 0.501753 0.99995  0.03178
 Ni1 0.750151 0.998161 7.7e-0  0.03178
 Ni1 0.75021 0.50179 8.3e-0  0.03178
 Ni1 0.001784 0.250028 0.49999  0.03178
 Ni1 0.001821 0.750151 0.49999  0.03178
 Ni1 0.501789 0.250064 0.49999  0.03178
 Ni1 0.498225 0.749967 0.49999  0.03178
 C1 0.337612 0.998873 0.901  0.1656
 C1 0.337455 0.501249 0.90129  0.1656
 C1 0.837522 0.998754 0.90138  0.1656
 C1 0.837508 0.50139 0.90130  0.1656
 C1 0.162765 0.99869 0.90135  0.1656
 C1 0.162605 0.501341 0.90142  0.1656
 C1 0.662713 0.998519 0.90139  0.1656
 C1 0.662693 0.501411 0.90148  0.1656
 C1 0.001304 0.337587 0.40108  0.1656
 C1 0.00137 0.837711 0.40117  0.1656
 C1 0.501325 0.337612 0.40107  0.1656
 C1 0.49859 0.837585 0.40120  0.1656
 C1 0.001404 0.162468 0.40106  0.1656
 C1 0.00142 0.662523 0.40120  0.1656
 C1 0.501415 0.162489 0.40107  0.1656
 C1 0.498635 0.662399 0.40116  0.1656
 C1 0.162719 0.998682 0.09844  0.1656
 C1 0.162656 0.501322 0.09854  0.1656
 C1 0.662686 0.998539 0.09866  0.1656
 C1 0.662762 0.501428 0.09869  0.1656
 C1 0.337583 0.998848 0.09859  0.1656
 C1 0.337514 0.501224 0.09855  0.1656
 C1 0.837483 0.998763 0.09877  0.1656
 C1 0.837552 0.501403 0.09875  0.1656
 C1 0.001265 0.337594 0.59890  0.1656
 C1 0.001305 0.837715 0.59880  0.1656
 C1 0.501382 0.3376 0.59893  0.1656
 C1 0.498618 0.837574 0.59879  0.1656
 C1 0.001322 0.162474 0.59892  0.1656
 C1 0.001374 0.662526 0.59878  0.1656
 C1 0.501484 0.162478 0.59889  0.1656
 C1 0.498699 0.662386 0.59880  0.1656
 N1 0.394169 0.99974 0.83957  -0.40944
 N1 0.394036 0.50042 0.83958  -0.40944
 N1 0.894031 0.999457 0.83958  -0.40944
 N1 0.893946 0.500729 0.8394  -0.40944
 N1 0.106027 0.999421 0.83983  -0.40944
 N1 0.105898 0.5006 0.83986  -0.40944
 N1 0.606122 0.999051 0.83969  -0.40944
 N1 0.606031 0.500807 0.83986  -0.40944
 N1 0.000646 0.393913 0.33879  -0.40944
 N1 0.00076 0.894129 0.33900  -0.40944
 N1 0.50072 0.39391 0.3387  -0.40944
 N1 0.499238 0.894066 0.33910  -0.40944
 N1 0.000808 0.106162 0.33875  -0.40944
 N1 0.000823 0.606026 0.33912  -0.40944
 N1 0.500848 0.106146 0.33880  -0.40944
 N1 0.499288 0.605972 0.33901  -0.40944
 N1 0.105976 0.999415 0.15995  -0.40944
 N1 0.105977 0.500585 0.16013  -0.40944
 N1 0.606064 0.999086 0.16033  -0.40944
 N1 0.606116 0.500835 0.16033  -0.40944
 N1 0.394115 0.999696 0.16035  -0.40944
 N1 0.394116 0.500376 0.16023  -0.40944
 N1 0.893979 0.999463 0.16058  -0.40944
 N1 0.894017 0.500747 0.16060  -0.40944
 N1 0.000595 0.393921 0.6611  -0.40944
 N1 0.000645 0.894137 0.6609  -0.40944
 N1 0.500808 0.393889 0.66126  -0.40944
 N1 0.499276 0.894051 0.66089  -0.40944
 N1 0.00067 0.10617 0.66124  -0.40944
 N1 0.000747 0.606035 0.66087  -0.40944
 N1 0.500961 0.10613 0.66115  -0.40944
 N1 0.4994 0.605954 0.66095  -0.40944
