#======================================================================

# CRYSTAL DATA

#----------------------------------------------------------------------

data_VESTA_phase_1


_pd_phase_name                         MOF
_cell_length_a                         22.11300
_cell_length_b                         22.11800
_cell_length_c                         14.06800
_cell_angle_alpha                      88.04500
_cell_angle_beta                       90.64500
_cell_angle_gamma                      80.13100
_symmetry_space_group_name_H-M         "P 1"
_symmetry_Int_Tables_number            1

loop_
_symmetry_equiv_pos_as_xyz
   "x, y, z"

loop_
   _atom_site_label
   _atom_site_fract_x
   _atom_site_fract_y
   _atom_site_fract_z
 _atom_site_charge
 Zn1 0.369504 0.166791 0.80792  0.920757037037
 Zn1 0.37004 0.666736 0.8075  0.920757037037
 Zn1 0.869293 0.166886 0.80760  0.920757037037
 Zn1 0.869992 0.666655 0.80795  0.920757037037
 Zn1 0.365713 0.172215 0.60440  0.920757037037
 Zn1 0.367172 0.671887 0.60407  0.920757037037
 Zn1 0.866691 0.171877 0.60406  0.920757037037
 Zn1 0.867159 0.671928 0.60439  0.920757037037
 Zn1 0.130005 0.333333 0.19202  0.920757037037
 Zn1 0.130687 0.833099 0.19241  0.920757037037
 Zn1 0.629977 0.333139 0.19241  0.920757037037
 Zn1 0.630488 0.83316 0.19206  0.920757037037
 Zn1 0.132838 0.328063 0.39558  0.920757037037
 Zn1 0.133287 0.828106 0.39593  0.920757037037
 Zn1 0.632848 0.328037 0.39592  0.920757037037
 Zn1 0.634214 0.827731 0.39558  0.920757037037
 H1 0.361132 0.370561 0.5565  0.107137037037
 H1 0.36377 0.86989 0.55618  0.107137037037
 H1 0.864273 0.369811 0.55651  0.107137037037
 H1 0.861847 0.870182 0.55680  0.107137037037
 H1 0.370767 0.481502 0.56035  0.107137037037
 H1 0.372182 0.981138 0.56009  0.107137037037
 H1 0.873097 0.480959 0.56051  0.107137037037
 H1 0.870187 0.981437 0.56064  0.107137037037
 H1 0.380259 0.468853 0.86523  0.107137037037
 H1 0.377881 0.969394 0.86510  0.107137037037
 H1 0.878174 0.469272 0.8655  0.107137037037
 H1 0.87963 0.968875 0.86553  0.107137037037
 H1 0.371891 0.356977 0.86151  0.107137037037
 H1 0.370595 0.857272 0.86136  0.107137037037
 H1 0.869941 0.357364 0.86169  0.107137037037
 H1 0.872045 0.856803 0.86182  0.107137037037
 H1 0.168487 0.192137 0.55311  0.107137037037
 H1 0.168787 0.692627 0.55284  0.107137037037
 H1 0.667862 0.193594 0.55228  0.107137037037
 H1 0.669139 0.692395 0.55253  0.107137037037
 H1 0.056495 0.188768 0.55256  0.107137037037
 H1 0.056723 0.689713 0.55353  0.107137037037
 H1 0.555825 0.190819 0.55269  0.107137037037
 H1 0.557086 0.689359 0.55259  0.107137037037
 H1 0.065809 0.145941 0.85290  0.107137037037
 H1 0.067695 0.644337 0.85309  0.107137037037
 H1 0.566687 0.144341 0.85191  0.107137037037
 H1 0.567374 0.64433 0.8522  0.107137037037
 H1 0.179098 0.148012 0.85327  0.107137037037
 H1 0.180972 0.646325 0.85231  0.107137037037
 H1 0.679925 0.146309 0.85145  0.107137037037
 H1 0.680666 0.646328 0.85209  0.107137037037
 H1 0.460806 0.153406 0.45696  0.107137037037
 H1 0.462358 0.652228 0.45653  0.107137037037
 H1 0.961174 0.1526 0.45580  0.107137037037
 H1 0.962547 0.65296 0.45699  0.107137037037
 H1 0.467346 0.151089 0.27998  0.107137037037
 H1 0.468951 0.650115 0.27955  0.107137037037
 H1 0.967231 0.150439 0.2787  0.107137037037
 H1 0.969098 0.650646 0.28002  0.107137037037
 H1 0.268536 0.183971 0.26921  0.107137037037
 H1 0.270121 0.683647 0.26859  0.107137037037
 H1 0.768419 0.18369 0.26921  0.107137037037
 H1 0.770273 0.683106 0.26933  0.107137037037
 H1 0.270557 0.184622 0.44625  0.107137037037
 H1 0.272132 0.684139 0.44571  0.107137037037
 H1 0.770916 0.18434 0.44631  0.107137037037
 H1 0.77229 0.68389 0.44631  0.107137037037
 H1 0.444063 0.090209 0.14519  0.107137037037
 H1 0.445654 0.590005 0.14404  0.107137037037
 H1 0.943577 0.089693 0.14438  0.107137037037
 H1 0.946247 0.590365 0.14453  0.107137037037
 H1 0.441444 0.093403 0.96703  0.107137037037
 H1 0.442525 0.593439 0.96585  0.107137037037
 H1 0.940878 0.093099 0.96619  0.107137037037
 H1 0.942927 0.593672 0.96636  0.107137037037
 H1 0.301122 0.243405 0.95551  0.107137037037
 H1 0.302269 0.743493 0.95555  0.107137037037
 H1 0.801049 0.243536 0.95515  0.107137037037
 H1 0.801488 0.742641 0.95620  0.107137037037
 H1 0.295152 0.245406 0.13324  0.107137037037
 H1 0.296684 0.745169 0.13328  0.107137037037
 H1 0.794952 0.245177 0.13294  0.107137037037
 H1 0.796056 0.744393 0.13392  0.107137037037
 H1 0.138121 0.129818 0.44319  0.107137037037
 H1 0.135686 0.630187 0.44346  0.107137037037
 H1 0.636261 0.129984 0.44391  0.107137037037
 H1 0.638843 0.629383 0.44345  0.107137037037
 H1 0.129802 0.01856 0.43936  0.107137037037
 H1 0.126878 0.519036 0.43948  0.107137037037
 H1 0.627814 0.018734 0.43999  0.107137037037
 H1 0.629278 0.518425 0.4396  0.107137037037
 H1 0.120371 0.031109 0.1344  0.107137037037
 H1 0.121841 0.530698 0.13445  0.107137037037
 H1 0.622021 0.030509 0.13497  0.107137037037
 H1 0.619897 0.531032 0.13475  0.107137037037
 H1 0.127942 0.143183 0.13817  0.107137037037
 H1 0.130065 0.642609 0.13828  0.107137037037
 H1 0.62929 0.142643 0.13874  0.107137037037
 H1 0.628168 0.642929 0.1384  0.107137037037
 H1 0.330881 0.30757 0.4474  0.107137037037
 H1 0.332109 0.806369 0.44772  0.107137037037
 H1 0.831307 0.307147 0.44719  0.107137037037
 H1 0.831497 0.807814 0.44689  0.107137037037
 H1 0.44293 0.310616 0.44740  0.107137037037
 H1 0.444148 0.809134 0.44731  0.107137037037
 H1 0.943309 0.310318 0.44644  0.107137037037
 H1 0.943477 0.811233 0.44744  0.107137037037
 H1 0.432627 0.355695 0.14774  0.107137037037
 H1 0.433275 0.855643 0.14809  0.107137037037
 H1 0.932267 0.35531 0.14676  0.107137037037
 H1 0.934148 0.854064 0.14710  0.107137037037
 H1 0.319342 0.353674 0.14790  0.107137037037
 H1 0.320032 0.853691 0.14857  0.107137037037
 H1 0.819064 0.352979 0.14756  0.107137037037
 H1 0.820869 0.851956 0.14674  0.107137037037
 H1 0.037445 0.347025 0.54297  0.107137037037
 H1 0.038793 0.84744 0.54421  0.107137037037
 H1 0.537639 0.347719 0.54348  0.107137037037
 H1 0.539175 0.846551 0.54305  0.107137037037
 H1 0.030894 0.349337 0.71995  0.107137037037
 H1 0.032744 0.849542 0.7212  0.107137037037
 H1 0.531047 0.349859 0.72046  0.107137037037
 H1 0.532653 0.848893 0.72003  0.107137037037
 H1 0.229719 0.316876 0.7306  0.107137037037
 H1 0.231559 0.815947 0.73081  0.107137037037
 H1 0.729876 0.316342 0.73142  0.107137037037
 H1 0.731463 0.81601 0.7307  0.107137037037
 H1 0.227703 0.316096 0.55366  0.107137037037
 H1 0.22905 0.815378 0.55370  0.107137037037
 H1 0.727867 0.315826 0.55431  0.107137037037
 H1 0.729425 0.815328 0.55372  0.107137037037
 H1 0.053745 0.409616 0.85545  0.107137037037
 H1 0.05652 0.91025 0.85557  0.107137037037
 H1 0.55433 0.409951 0.8560  0.107137037037
 H1 0.555946 0.909779 0.85480  0.107137037037
 H1 0.057071 0.406309 0.03361  0.107137037037
 H1 0.059227 0.906919 0.0337  0.107137037037
 H1 0.557468 0.40649 0.03419  0.107137037037
 H1 0.558552 0.906567 0.03296  0.107137037037
 H1 0.198519 0.257349 0.0437  0.107137037037
 H1 0.198854 0.756298 0.04493  0.107137037037
 H1 0.697775 0.256485 0.04444  0.107137037037
 H1 0.69887 0.75656 0.04447  0.107137037037
 H1 0.203939 0.255589 0.8660  0.107137037037
 H1 0.204897 0.754538 0.86715  0.107137037037
 H1 0.703336 0.254817 0.86670  0.107137037037
 H1 0.704851 0.754577 0.86674  0.107137037037
 C1 0.359455 0.290291 0.70668  0.674082037037
 C1 0.360863 0.789917 0.70660  0.674082037037
 C1 0.860407 0.290029 0.70693  0.674082037037
 C1 0.860504 0.789889 0.70696  0.674082037037
 C2 0.365558 0.35695 0.70885  -0.0419062962963
 C2 0.36634 0.85673 0.70861  -0.0419062962963
 C2 0.866245 0.356754 0.70894  -0.0419062962963
 C2 0.866072 0.856665 0.70914  -0.0419062962963
 C3 0.365703 0.3921 0.62395  -0.111905462963
 C3 0.367247 0.891686 0.62367  -0.111905462963
 C3 0.867646 0.391617 0.62402  -0.111905462963
 C3 0.866042 0.891833 0.62423  -0.111905462963
 C3 0.371137 0.453818 0.6259  -0.111905462963
 C3 0.372004 0.953578 0.62570  -0.111905462963
 C3 0.872674 0.453438 0.62610  -0.111905462963
 C3 0.870788 0.953713 0.62622  -0.111905462963
 C2 0.37624 0.481781 0.71  -0.0419062962963
 C2 0.375736 0.98187 0.71280  -0.0419062962963
 C2 0.876387 0.481711 0.71324  -0.0419062962963
 C2 0.875564 0.981775 0.71328  -0.0419062962963
 C3 0.376722 0.44656 0.79800  -0.111905462963
 C3 0.375413 0.946853 0.79785  -0.111905462963
 C3 0.875682 0.446756 0.79826  -0.111905462963
 C3 0.876292 0.946527 0.79830  -0.111905462963
 C3 0.37163 0.384723 0.79597  -0.111905462963
 C3 0.370945 0.884871 0.79580  -0.111905462963
 C3 0.870731 0.38489 0.79615  -0.111905462963
 C3 0.871693 0.884564 0.79627  -0.111905462963
 C1 0.377508 0.049537 0.7146  0.674082037037
 C1 0.378459 0.549353 0.71482  0.674082037037
 C1 0.877374 0.049441 0.71496  0.674082037037
 C1 0.87845 0.549318 0.7150  0.674082037037
 C1 0.247876 0.173482 0.70399  0.674082037037
 C1 0.248955 0.673135 0.70273  0.674082037037
 C1 0.74812 0.173751 0.70249  0.674082037037
 C1 0.748951 0.67303 0.70276  0.674082037037
 C2 0.180665 0.17042 0.70348  -0.0419062962963
 C2 0.181772 0.669883 0.70279  -0.0419062962963
 C2 0.680873 0.170423 0.70214  -0.0419062962963
 C2 0.681779 0.669767 0.70256  -0.0419062962963
 C3 0.146122 0.18138 0.61854  -0.111905462963
 C3 0.146751 0.6815 0.61839  -0.111905462963
 C3 0.645839 0.182286 0.61775  -0.111905462963
 C3 0.64696 0.68129 0.61795  -0.111905462963
 C3 0.08359 0.179582 0.61819  -0.111905462963
 C3 0.084173 0.679897 0.61873  -0.111905462963
 C3 0.583216 0.18074 0.61793  -0.111905462963
 C3 0.584393 0.67964 0.61794  -0.111905462963
 C2 0.054492 0.16673 0.70275  -0.0419062962963
 C2 0.055487 0.666455 0.70340  -0.0419062962963
 C2 0.554445 0.167049 0.70241  -0.0419062962963
 C2 0.555527 0.666287 0.70248  -0.0419062962963
 C3 0.089026 0.155642 0.78769  -0.111905462963
 C3 0.090548 0.654547 0.78777  -0.111905462963
 C3 0.589548 0.154785 0.78672  -0.111905462963
 C3 0.590387 0.654473 0.78706  -0.111905462963
 C3 0.15165 0.157197 0.78796  -0.111905462963
 C3 0.153187 0.656028 0.78739  -0.111905462963
 C3 0.652196 0.156244 0.78651  -0.111905462963
 C3 0.653023 0.655967 0.78703  -0.111905462963
 C1 0.486695 0.166219 0.70316  0.674082037037
 C1 0.487834 0.665417 0.70270  0.674082037037
 C1 0.986882 0.165572 0.70249  0.674082037037
 C1 0.987789 0.665535 0.70395  0.674082037037
 C4 0.419623 0.159295 0.41202  0.169034537037
 C4 0.421181 0.658345 0.41155  0.169034537037
 C4 0.919866 0.158681 0.41112  0.169034537037
 C4 0.921364 0.658839 0.41205  0.169034537037
 C3 0.422652 0.157759 0.31361  -0.111905462963
 C3 0.424237 0.65691 0.31313  -0.111905462963
 C3 0.92263 0.157179 0.31269  -0.111905462963
 C3 0.924396 0.657277 0.3136  -0.111905462963
 C2 0.368056 0.167098 0.25927  -0.0419062962963
 C2 0.369654 0.666537 0.25875  -0.0419062962963
 C2 0.867904 0.166646 0.25869  -0.0419062962963
 C2 0.869792 0.666518 0.25931  -0.0419062962963
 C3 0.31233 0.17681 0.30770  -0.111905462963
 C3 0.313912 0.676304 0.30713  -0.111905462963
 C3 0.812307 0.176429 0.30745  -0.111905462963
 C3 0.814075 0.676089 0.30778  -0.111905462963
 C4 0.312959 0.177112 0.4064  0.169034537037
 C4 0.314523 0.676505 0.40585  0.169034537037
 C4 0.813196 0.17672 0.40617  0.169034537037
 C4 0.814694 0.676459 0.40646  0.169034537037
 C2 0.369149 0.167368 0.15426  -0.0419062962963
 C2 0.370686 0.667068 0.15373  -0.0419062962963
 C2 0.868836 0.166998 0.15367  -0.0419062962963
 C2 0.87071 0.666878 0.15429  -0.0419062962963
 C3 0.411379 0.124951 0.10606  -0.111905462963
 C3 0.412853 0.624783 0.10519  -0.111905462963
 C3 0.910969 0.124556 0.10535  -0.111905462963
 C3 0.913137 0.624872 0.10572  -0.111905462963
 C4 0.410332 0.126309 0.  0.169034537037
 C4 0.411546 0.626276 0.  0.169034537037
 C4 0.909914 0.126055 0.  0.169034537037
 C4 0.911717 0.626294 0.  0.169034537037
 C4 0.330874 0.209692 0.  0.169034537037
 C4 0.332086 0.709674 0.  0.169034537037
 C4 0.830654 0.20965 0.  0.169034537037
 C4 0.831617 0.709066 0.  0.169034537037
 C3 0.327981 0.210519 0.09939  -0.111905462963
 C3 0.329435 0.710342 0.09919  -0.111905462963
 C3 0.82773 0.210301 0.09896  -0.111905462963
 C3 0.829047 0.709779 0.099  -0.111905462963
 C1 0.139478 0.210105 0.29303  0.674082037037
 C1 0.139579 0.709953 0.29304  0.674082037037
 C1 0.639135 0.209945 0.29340  0.674082037037
 C1 0.640528 0.709642 0.29329  0.674082037037
 C2 0.133908 0.143329 0.2908  -0.0419062962963
 C2 0.133742 0.643229 0.29103  -0.0419062962963
 C2 0.63363 0.143142 0.29147  -0.0419062962963
 C2 0.63446 0.642973 0.2911  -0.0419062962963
 C3 0.133935 0.108163 0.37576  -0.111905462963
 C3 0.132329 0.608374 0.37595  -0.111905462963
 C3 0.632753 0.108191 0.37642  -0.111905462963
 C3 0.634308 0.60783 0.37603  -0.111905462963
 C3 0.129199 0.04628 0.37377  -0.111905462963
 C3 0.127308 0.546552 0.37388  -0.111905462963
 C3 0.627978 0.046304 0.37439  -0.111905462963
 C3 0.628916 0.546102 0.37405  -0.111905462963
 C2 0.124432 0.018212 0.28671  -0.0419062962963
 C2 0.123611 0.518272 0.28675  -0.0419062962963
 C2 0.624223 0.018033 0.28727  -0.0419062962963
 C2 0.623872 0.51812 0.28699  -0.0419062962963
 C3 0.123703 0.053459 0.20169  -0.111905462963
 C3 0.124323 0.55322 0.20172  -0.111905462963
 C3 0.624508 0.053048 0.20222  -0.111905462963
 C3 0.623393 0.553334 0.20198  -0.111905462963
 C3 0.128295 0.115425 0.20372  -0.111905462963
 C3 0.129269 0.615088 0.20382  -0.111905462963
 C3 0.628973 0.115024 0.2042  -0.111905462963
 C3 0.628432 0.615185 0.20401  -0.111905462963
 C1 0.121554 0.450665 0.28492  0.674082037037
 C1 0.122624 0.950545 0.28504  0.674082037037
 C1 0.621713 0.450538 0.28520  0.674082037037
 C1 0.622465 0.950379 0.28542  0.674082037037
 C1 0.251059 0.326945 0.29722  0.674082037037
 C1 0.25185 0.826226 0.29753  0.674082037037
 C1 0.751142 0.3262 0.29728  0.674082037037
 C1 0.752107 0.826402 0.2960  0.674082037037
 C2 0.318232 0.330217 0.29743  -0.0419062962963
 C2 0.319094 0.829558 0.29788  -0.0419062962963
 C2 0.818294 0.329598 0.29715  -0.0419062962963
 C2 0.819309 0.829523 0.29652  -0.0419062962963
 C3 0.353056 0.318685 0.38203  -0.111905462963
 C3 0.354131 0.817683 0.3822  -0.111905462963
 C3 0.853312 0.318226 0.38159  -0.111905462963
 C3 0.853856 0.818582 0.38146  -0.111905462963
 C3 0.415624 0.320342 0.38204  -0.111905462963
 C3 0.416755 0.819222 0.38208  -0.111905462963
 C3 0.915858 0.319984 0.38121  -0.111905462963
 C3 0.916383 0.820408 0.38181  -0.111905462963
 C2 0.444487 0.333709 0.29750  -0.0419062962963
 C2 0.445522 0.832913 0.29759  -0.0419062962963
 C2 0.944515 0.333385 0.29649  -0.0419062962963
 C2 0.945479 0.833267 0.2972  -0.0419062962963
 C3 0.40962 0.345537 0.21294  -0.111905462963
 C3 0.410416 0.845195 0.21329  -0.111905462963
 C3 0.909447 0.345103 0.21211  -0.111905462963
 C3 0.910938 0.844351 0.21231  -0.111905462963
 C3 0.346985 0.344031 0.2129  -0.111905462963
 C3 0.347766 0.843745 0.21350  -0.111905462963
 C3 0.846843 0.343432 0.21250  -0.111905462963
 C3 0.848318 0.842773 0.21204  -0.111905462963
 C1 0.012196 0.334422 0.29591  0.674082037037
 C1 0.013089 0.834427 0.29751  0.674082037037
 C1 0.512182 0.334576 0.2972  0.674082037037
 C1 0.513274 0.833724 0.29684  0.674082037037
 C4 0.078628 0.341142 0.58792  0.169034537037
 C4 0.080105 0.841271 0.5888  0.169034537037
 C4 0.578817 0.34161 0.58846  0.169034537037
 C4 0.580362 0.840668 0.58798  0.169034537037
 C3 0.075596 0.342704 0.68634  -0.111905462963
 C3 0.077345 0.842735 0.68732  -0.111905462963
 C3 0.575761 0.343061 0.68688  -0.111905462963
 C3 0.577344 0.842218 0.68639  -0.111905462963
 C2 0.1302 0.333463 0.74066  -0.0419062962963
 C2 0.132073 0.833161 0.7413  -0.0419062962963
 C2 0.630344 0.33344 0.74126  -0.0419062962963
 C2 0.631944 0.832884 0.7407  -0.0419062962963
 C3 0.185917 0.32389 0.69219  -0.111905462963
 C3 0.187668 0.823287 0.69257  -0.111905462963
 C3 0.686085 0.323675 0.69287  -0.111905462963
 C3 0.687665 0.823167 0.69228  -0.111905462963
 C4 0.185298 0.323521 0.5935  0.169034537037
 C4 0.186774 0.823046 0.5938  0.169034537037
 C4 0.685474 0.323459 0.59416  0.169034537037
 C4 0.687027 0.822849 0.59357  0.169034537037
 C2 0.129284 0.333105 0.84568  -0.0419062962963
 C2 0.131143 0.832828 0.84634  -0.0419062962963
 C2 0.629316 0.332906 0.84628  -0.0419062962963
 C2 0.630856 0.832616 0.84573  -0.0419062962963
 C3 0.086857 0.37511 0.89426  -0.111905462963
 C3 0.08908 0.875356 0.89463  -0.111905462963
 C3 0.587143 0.375176 0.89484  -0.111905462963
 C3 0.588626 0.875032 0.89393  -0.111905462963
 C4 0.088282 0.37369 0.99311  0.169034537037
 C4 0.090142 0.873903 0.99346  0.169034537037
 C4 0.588458 0.373671 0.99368  0.169034537037
 C4 0.589666 0.873663 0.9927  0.169034537037
 C4 0.168386 0.290921 0.99870  0.169034537037
 C4 0.169287 0.790198 0.99960  0.169034537037
 C4 0.667941 0.290291 0.99933  0.169034537037
 C4 0.669121 0.790278 0.99910  0.169034537037
 C3 0.17095 0.290204 0.90017  -0.111905462963
 C3 0.172186 0.789489 0.9010  -0.111905462963
 C3 0.670581 0.289635 0.9008  -0.111905462963
 C3 0.672021 0.789461 0.90059  -0.111905462963
 N1 0.365746 0.168884 0.4580  -0.286302962963
 N1 0.36729 0.668116 0.4575  -0.286302962963
 N1 0.866117 0.168392 0.45747  -0.286302962963
 N1 0.867486 0.668388 0.45805  -0.286302962963
 N1 0.370779 0.168014 0.95503  -0.286302962963
 N1 0.371833 0.66803 0.95451  -0.286302962963
 N1 0.870481 0.167963 0.95450  -0.286302962963
 N1 0.871658 0.667733 0.95505  -0.286302962963
 N1 0.132506 0.331592 0.54192  -0.286302962963
 N1 0.133852 0.831498 0.5425  -0.286302962963
 N1 0.632708 0.331833 0.54248  -0.286302962963
 N1 0.634235 0.831069 0.54197  -0.286302962963
 N1 0.128348 0.332255 0.04492  -0.286302962963
 N1 0.129526 0.831969 0.04551  -0.286302962963
 N1 0.628187 0.331922 0.04550  -0.286302962963
 N1 0.629213 0.83195 0.04495  -0.286302962963
 O1 0.359836 0.261447 0.78694  -0.595157962963
 O1 0.359309 0.761587 0.78690  -0.595157962963
 O1 0.85671 0.262235 0.78712  -0.595157962963
 O1 0.859436 0.761354 0.78719  -0.595157962963
 O1 0.354333 0.26763 0.62550  -0.595157962963
 O1 0.357936 0.766644 0.62538  -0.595157962963
 O1 0.859512 0.266284 0.62572  -0.595157962963
 O1 0.85717 0.766823 0.62567  -0.595157962963
 O1 0.377905 0.078113 0.63472  -0.595157962963
 O1 0.377375 0.578125 0.63483  -0.595157962963
 O1 0.874809 0.078329 0.63490  -0.595157962963
 O1 0.87747 0.578095 0.63512  -0.595157962963
 O1 0.377482 0.073159 0.79617  -0.595157962963
 O1 0.380036 0.572779 0.79629  -0.595157962963
 O1 0.880186 0.072804 0.79627  -0.595157962963
 O1 0.879931 0.572744 0.79656  -0.595157962963
 O1 0.274329 0.174632 0.78486  -0.595157962963
 O1 0.275871 0.672385 0.78366  -0.595157962963
 O1 0.77507 0.171858 0.78357  -0.595157962963
 O1 0.775781 0.672376 0.78374  -0.595157962963
 O1 0.273269 0.175308 0.62338  -0.595157962963
 O1 0.273847 0.677062 0.62208  -0.595157962963
 O1 0.773021 0.178992 0.62212  -0.595157962963
 O1 0.773913 0.676908 0.62216  -0.595157962963
 O1 0.458546 0.171901 0.62289  -0.595157962963
 O1 0.460406 0.669296 0.62195  -0.595157962963
 O1 0.960155 0.166934 0.62152  -0.595157962963
 O1 0.960199 0.669581 0.62333  -0.595157962963
 O1 0.462483 0.160438 0.7839  -0.595157962963
 O1 0.463023 0.661502 0.78340  -0.595157962963
 O1 0.961426 0.163869 0.78308  -0.595157962963
 O1 0.963103 0.661399 0.78466  -0.595157962963
 O1 0.140556 0.238637 0.21279  -0.595157962963
 O1 0.143279 0.737747 0.21286  -0.595157962963
 O1 0.640321 0.238264 0.21303  -0.595157962963
 O1 0.640176 0.738478 0.21303  -0.595157962963
 O1 0.142807 0.233174 0.37432  -0.595157962963
 O1 0.140471 0.733699 0.37425  -0.595157962963
 O1 0.642411 0.233205 0.37457  -0.595157962963
 O1 0.645604 0.732309 0.37448  -0.595157962963
 O1 0.122545 0.421894 0.364  -0.595157962963
 O1 0.125191 0.921656 0.36510  -0.595157962963
 O1 0.622574 0.421823 0.36520  -0.595157962963
 O1 0.622124 0.921785 0.36531  -0.595157962963
 O1 0.12007 0.427233 0.20345  -0.595157962963
 O1 0.119809 0.927182 0.20373  -0.595157962963
 O1 0.620392 0.427045 0.2037  -0.595157962963
 O1 0.62249 0.926778 0.20385  -0.595157962963
 O1 0.224228 0.327608 0.21624  -0.595157962963
 O1 0.224892 0.828135 0.21646  -0.595157962963
 O1 0.724343 0.326048 0.21641  -0.595157962963
 O1 0.725645 0.825361 0.21512  -0.595157962963
 O1 0.226094 0.323073 0.37782  -0.595157962963
 O1 0.226958 0.820975 0.37791  -0.595157962963
 O1 0.726153 0.32304 0.37799  -0.595157962963
 O1 0.726732 0.824419 0.37660  -0.595157962963
 O1 0.039791 0.330433 0.3765  -0.595157962963
 O1 0.039818 0.833064 0.37848  -0.595157962963
 O1 0.539647 0.330577 0.37800  -0.595157962963
 O1 0.541404 0.828079 0.37713  -0.595157962963
 O1 0.036869 0.338587 0.21519  -0.595157962963
 O1 0.038549 0.836121 0.21692  -0.595157962963
 O1 0.53697 0.338589 0.2165  -0.595157962963
 O1 0.537505 0.839435 0.21609  -0.595157962963
