#======================================================================

# CRYSTAL DATA

#----------------------------------------------------------------------

data_VESTA_phase_1


_pd_phase_name                         MOF
_cell_length_a                         16.97800
_cell_length_b                         23.61200
_cell_length_c                         15.94300
_cell_angle_alpha                      95.36000
_cell_angle_beta                       105.33700
_cell_angle_gamma                      99.08800
_symmetry_space_group_name_H-M         "P 1"
_symmetry_Int_Tables_number            1

loop_
_symmetry_equiv_pos_as_xyz
   "x, y, z"

loop_
   _atom_site_label
   _atom_site_fract_x
   _atom_site_fract_y
   _atom_site_fract_z
 _atom_site_charge
 Cd1 0.259812 0.273218 0.6748  1.12973438095
 Cd1 0.260159 0.773278 0.67531  1.12973438095
 Cd1 0.759811 0.273217 0.67483  1.12973438095
 Cd1 0.760159 0.773277 0.6753  1.12973438095
 Cd1 0.239827 0.226736 0.32469  1.12973438095
 Cd1 0.240179 0.726797 0.32517  1.12973438095
 Cd1 0.739827 0.226736 0.32469  1.12973438095
 Cd1 0.740177 0.726796 0.3251  1.12973438095
 Cd1 0.250134 0.250065 0.00021  1.12973438095
 Cd1 0.249864 0.749949 0.99980  1.12973438095
 Cd1 0.750134 0.250064 0.00021  1.12973438095
 Cd1 0.749863 0.749949 0.99979  1.12973438095
 H1 0.488796 0.216005 0.57614  0.11992715873
 H1 0.489306 0.715736 0.57635  0.11992715873
 H1 0.988797 0.216005 0.57614  0.11992715873
 H1 0.989306 0.715737 0.57635  0.11992715873
 H1 0.034426 0.290553 0.58882  0.11992715873
 H1 0.034548 0.790329 0.58882  0.11992715873
 H1 0.534429 0.290553 0.58882  0.11992715873
 H1 0.534553 0.790329 0.58882  0.11992715873
 H1 0.427477 0.202587 0.80529  0.11992715873
 H1 0.427339 0.702876 0.80428  0.11992715873
 H1 0.927478 0.202586 0.80529  0.11992715873
 H1 0.927342 0.702876 0.80428  0.11992715873
 H1 0.00669 0.221384 0.90790  0.11992715873
 H1 0.006102 0.721021 0.90732  0.11992715873
 H1 0.506694 0.221385 0.90790  0.11992715873
 H1 0.506102 0.721019 0.90732  0.11992715873
 H1 0.490887 0.283877 0.74343  0.11992715873
 H1 0.491788 0.784636 0.74412  0.11992715873
 H1 0.990889 0.283877 0.74343  0.11992715873
 H1 0.991789 0.784635 0.74412  0.11992715873
 H1 0.063253 0.313097 0.84802  0.11992715873
 H1 0.063784 0.813113 0.8492  0.11992715873
 H1 0.563254 0.313098 0.84802  0.11992715873
 H1 0.563786 0.813112 0.84922  0.11992715873
 H1 0.243222 0.175847 0.80246  0.11992715873
 H1 0.242868 0.675763 0.80282  0.11992715873
 H1 0.743221 0.175846 0.8024  0.11992715873
 H1 0.74287 0.675763 0.80282  0.11992715873
 H1 0.290046 0.166539 0.55898  0.11992715873
 H1 0.289849 0.666501 0.55941  0.11992715873
 H1 0.790044 0.166538 0.55898  0.11992715873
 H1 0.789846 0.666501 0.55941  0.11992715873
 H1 0.29437 0.062149 0.55513  0.11992715873
 H1 0.293909 0.562089 0.55542  0.11992715873
 H1 0.794369 0.062148 0.55513  0.11992715873
 H1 0.793905 0.562089 0.55542  0.11992715873
 H1 0.248588 0.072611 0.8102  0.11992715873
 H1 0.247989 0.572497 0.81044  0.11992715873
 H1 0.748585 0.072609 0.81021  0.11992715873
 H1 0.74799 0.572496 0.81044  0.11992715873
 H1 0.355622 0.488888 0.60159  0.11992715873
 H1 0.355825 0.988813 0.60103  0.11992715873
 H1 0.855622 0.488887 0.60159  0.11992715873
 H1 0.855822 0.988811 0.60103  0.11992715873
 H1 0.188253 0.480274 0.76494  0.11992715873
 H1 0.189006 0.980475 0.76498  0.11992715873
 H1 0.688252 0.480273 0.76494  0.11992715873
 H1 0.689004 0.980474 0.76498  0.11992715873
 H1 0.347756 0.383012 0.59970  0.11992715873
 H1 0.347766 0.882919 0.59914  0.11992715873
 H1 0.847755 0.383011 0.59970  0.11992715873
 H1 0.847764 0.882918 0.59914  0.11992715873
 H1 0.118926 0.027054 0.99123  0.11992715873
 H1 0.119108 0.527167 0.99183  0.11992715873
 H1 0.618922 0.027052 0.99123  0.11992715873
 H1 0.619102 0.527165 0.99181  0.11992715873
 H1 0.381863 0.058042 0.00768  0.11992715873
 H1 0.38191 0.557974 0.00762  0.11992715873
 H1 0.881862 0.058041 0.00768  0.11992715873
 H1 0.88191 0.557973 0.00763  0.11992715873
 H1 0.124525 0.131642 0.99255  0.11992715873
 H1 0.124806 0.631739 0.99315  0.11992715873
 H1 0.624521 0.13164 0.99254  0.11992715873
 H1 0.624802 0.631738 0.99314  0.11992715873
 H1 0.375899 0.160653 0.00507  0.11992715873
 H1 0.376117 0.660617 0.00530  0.11992715873
 H1 0.875897 0.160652 0.00507  0.11992715873
 H1 0.876116 0.660617 0.00531  0.11992715873
 H1 0.191143 0.37484 0.76028  0.11992715873
 H1 0.191738 0.875039 0.76036  0.11992715873
 H1 0.691141 0.374839 0.76028  0.11992715873
 H1 0.691734 0.875038 0.76036  0.11992715873
 H1 0.010686 0.284279 0.42365  0.11992715873
 H1 0.01119 0.784008 0.42386  0.11992715873
 H1 0.510685 0.284279 0.42365  0.11992715873
 H1 0.511192 0.784009 0.42386  0.11992715873
 H1 0.465436 0.209687 0.41118  0.11992715873
 H1 0.465559 0.70946 0.41118  0.11992715873
 H1 0.965439 0.209687 0.41118  0.11992715873
 H1 0.965562 0.70946 0.41118  0.11992715873
 H1 0.072642 0.297136 0.19572  0.11992715873
 H1 0.07251 0.797428 0.19471  0.11992715873
 H1 0.572645 0.297136 0.19572  0.11992715873
 H1 0.572512 0.797426 0.1947  0.11992715873
 H1 0.493881 0.278989 0.09268  0.11992715873
 H1 0.493295 0.778628 0.09210  0.11992715873
 H1 0.99388 0.278987 0.09268  0.11992715873
 H1 0.993299 0.77863 0.09210  0.11992715873
 H1 0.008203 0.215378 0.25588  0.11992715873
 H1 0.009097 0.716137 0.25657  0.11992715873
 H1 0.508204 0.215377 0.25588  0.11992715873
 H1 0.509101 0.716137 0.25657  0.11992715873
 H1 0.436201 0.186899 0.15079  0.11992715873
 H1 0.436734 0.686915 0.15198  0.11992715873
 H1 0.936203 0.186898 0.15079  0.11992715873
 H1 0.936736 0.686916 0.15198  0.11992715873
 H1 0.257116 0.32425 0.19718  0.11992715873
 H1 0.256766 0.824168 0.19754  0.11992715873
 H1 0.757116 0.324249 0.19718  0.11992715873
 H1 0.756765 0.824167 0.19754  0.11992715873
 H1 0.210143 0.333513 0.44059  0.11992715873
 H1 0.209946 0.833475 0.44102  0.11992715873
 H1 0.71014 0.333513 0.44059  0.11992715873
 H1 0.709944 0.833474 0.44102  0.11992715873
 H1 0.206086 0.437926 0.44458  0.11992715873
 H1 0.205622 0.937865 0.44487  0.11992715873
 H1 0.706085 0.437925 0.44458  0.11992715873
 H1 0.705619 0.937864 0.44487  0.11992715873
 H1 0.251998 0.427518 0.18956  0.11992715873
 H1 0.251404 0.927405 0.18979  0.11992715873
 H1 0.751997 0.427517 0.18956  0.11992715873
 H1 0.751401 0.927403 0.18979  0.11992715873
 H1 0.144166 0.011201 0.39897  0.11992715873
 H1 0.14437 0.511128 0.39841  0.11992715873
 H1 0.644163 0.0112 0.39897  0.11992715873
 H1 0.644369 0.511126 0.39841  0.11992715873
 H1 0.310981 0.01954 0.23502  0.11992715873
 H1 0.311735 0.51974 0.23506  0.11992715873
 H1 0.81098 0.019539 0.23502  0.11992715873
 H1 0.811732 0.519739 0.23506  0.11992715873
 H1 0.152222 0.117095 0.40086  0.11992715873
 H1 0.152237 0.617004 0.40030  0.11992715873
 H1 0.65222 0.117093 0.40086  0.11992715873
 H1 0.652236 0.617002 0.40030  0.11992715873
 H1 0.380886 0.472847 0.00818  0.11992715873
 H1 0.381065 0.972959 0.00877  0.11992715873
 H1 0.880882 0.472846 0.0081  0.11992715873
 H1 0.881062 0.972958 0.00877  0.11992715873
 H1 0.11808 0.44204 0.99238  0.11992715873
 H1 0.118127 0.941972 0.99232  0.11992715873
 H1 0.61808 0.44204 0.99239  0.11992715873
 H1 0.618126 0.941971 0.99233  0.11992715873
 H1 0.375186 0.368274 0.00686  0.11992715873
 H1 0.375465 0.868371 0.00745  0.11992715873
 H1 0.875183 0.368273 0.00685  0.11992715873
 H1 0.875461 0.86837 0.00744  0.11992715873
 H1 0.123873 0.339396 0.99470  0.11992715873
 H1 0.12409 0.83936 0.99493  0.11992715873
 H1 0.623873 0.339395 0.99470  0.11992715873
 H1 0.624088 0.83936 0.99493  0.11992715873
 H1 0.308252 0.124977 0.23964  0.11992715873
 H1 0.308847 0.625174 0.23972  0.11992715873
 H1 0.808249 0.124975 0.23964  0.11992715873
 H1 0.808843 0.625173 0.23972  0.11992715873
 C1 0.489604 0.254892 0.54336  -0.362035619048
 C1 0.489841 0.754569 0.54344  -0.362035619048
 C1 0.989605 0.254892 0.54336  -0.362035619048
 C1 0.989841 0.754568 0.54344  -0.362035619048
 C1 0.471228 0.238553 0.85101  -0.362035619048
 C1 0.471063 0.738567 0.85060  -0.362035619048
 C1 0.971229 0.238553 0.85101  -0.362035619048
 C1 0.971065 0.738568 0.85060  -0.362035619048
 C1 0.027097 0.273076 0.8058  -0.362035619048
 C1 0.027553 0.773362 0.80634  -0.362035619048
 C1 0.527098 0.273077 0.8058  -0.362035619048
 C1 0.527554 0.773361 0.80634  -0.362035619048
 C2 0.254455 0.149263 0.74887  0.191741047619
 C2 0.254071 0.649193 0.74921  0.191741047619
 C2 0.754453 0.149262 0.74887  0.191741047619
 C2 0.754073 0.649192 0.74921  0.191741047619
 C2 0.280704 0.143989 0.61320  0.191741047619
 C2 0.280409 0.643948 0.61359  0.191741047619
 C2 0.780703 0.143988 0.61320  0.191741047619
 C2 0.780408 0.643948 0.61359  0.191741047619
 C3 0.283801 0.085474 0.61214  -0.194033952381
 C3 0.283356 0.58541 0.61245  -0.194033952381
 C3 0.783796 0.085472 0.61214  -0.194033952381
 C3 0.783353 0.585409 0.61245  -0.194033952381
 C3 0.256956 0.090972 0.75231  -0.194033952381
 C3 0.256428 0.590877 0.75257  -0.194033952381
 C3 0.756951 0.090971 0.75231  -0.194033952381
 C3 0.756428 0.590876 0.75257  -0.194033952381
 C4 0.271435 0.057251 0.68262  0.0913143809524
 C4 0.270935 0.557173 0.68290  0.0913143809524
 C4 0.771436 0.057251 0.68262  0.0913143809524
 C4 0.770936 0.557172 0.68290  0.0913143809524
 C4 0.271748 0.494541 0.68309  0.0913143809524
 C4 0.272235 0.994616 0.68283  0.0913143809524
 C4 0.771745 0.49454 0.6830  0.0913143809524
 C4 0.772235 0.994616 0.68283  0.0913143809524
 C3 0.316966 0.465573 0.63679  -0.194033952381
 C3 0.317249 0.96556 0.63637  -0.194033952381
 C3 0.816967 0.465572 0.63679  -0.194033952381
 C3 0.817246 0.965558 0.6363  -0.194033952381
 C3 0.22598 0.461035 0.72881  -0.194033952381
 C3 0.226576 0.961173 0.72871  -0.194033952381
 C3 0.72598 0.461035 0.72881  -0.194033952381
 C3 0.726573 0.961173 0.72871  -0.194033952381
 C2 0.313902 0.406266 0.63643  0.191741047619
 C2 0.314076 0.906238 0.63601  0.191741047619
 C2 0.813898 0.406265 0.63643  0.191741047619
 C2 0.814071 0.906236 0.63600  0.191741047619
 C3 0.177997 0.05447 0.99514  -0.194033952381
 C3 0.178161 0.554537 0.99556  -0.194033952381
 C3 0.677993 0.054468 0.99513  -0.194033952381
 C3 0.678155 0.554535 0.99554  -0.194033952381
 C3 0.322678 0.071263 0.00424  -0.194033952381
 C3 0.322775 0.571237 0.00432  -0.194033952381
 C3 0.822676 0.071262 0.00424  -0.194033952381
 C3 0.822772 0.571235 0.00431  -0.194033952381
 C4 0.250222 0.031474 0.99992  0.0913143809524
 C4 0.250294 0.531486 0.  0.0913143809524
 C4 0.750219 0.031473 0.99991  0.0913143809524
 C4 0.750297 0.531488 0.  0.0913143809524
 C2 0.180352 0.113596 0.99561  0.191741047619
 C2 0.180588 0.613667 0.99608  0.191741047619
 C2 0.680349 0.113594 0.99561  0.191741047619
 C2 0.680587 0.613667 0.9960  0.191741047619
 C2 0.320466 0.129834 0.00391  0.191741047619
 C2 0.32065 0.629829 0.00413  0.191741047619
 C2 0.820464 0.129833 0.00391  0.191741047619
 C2 0.820653 0.62983 0.00415  0.191741047619
 C2 0.226465 0.402089 0.72606  0.191741047619
 C2 0.226953 0.902216 0.72596  0.191741047619
 C2 0.726462 0.402088 0.72605  0.191741047619
 C2 0.726947 0.902215 0.72596  0.191741047619
 C1 0.010148 0.245446 0.45656  -0.362035619048
 C1 0.010383 0.745122 0.45664  -0.362035619048
 C1 0.510148 0.245446 0.45656  -0.362035619048
 C1 0.510384 0.745123 0.45664  -0.362035619048
 C1 0.028921 0.261442 0.149  -0.362035619048
 C1 0.028759 0.761462 0.14899  -0.362035619048
 C1 0.528924 0.261443 0.149  -0.362035619048
 C1 0.52876 0.76146 0.14899  -0.362035619048
 C1 0.472435 0.22665 0.19366  -0.362035619048
 C1 0.47289 0.726937 0.19419  -0.362035619048
 C1 0.972437 0.226649 0.1936  -0.362035619048
 C1 0.97289 0.726938 0.19419  -0.362035619048
 C2 0.245915 0.350822 0.25079  0.191741047619
 C2 0.24553 0.85075 0.25113  0.191741047619
 C2 0.745909 0.35082 0.25078  0.191741047619
 C2 0.745532 0.85075 0.25113  0.191741047619
 C2 0.219581 0.356066 0.38641  0.191741047619
 C2 0.219281 0.856025 0.38680  0.191741047619
 C2 0.719575 0.356065 0.38641  0.191741047619
 C2 0.719283 0.856024 0.38680  0.191741047619
 C3 0.216636 0.414605 0.38755  -0.194033952381
 C3 0.216199 0.914542 0.38786  -0.194033952381
 C3 0.716639 0.414605 0.38755  -0.194033952381
 C3 0.716191 0.91454 0.38786  -0.194033952381
 C3 0.24356 0.409138 0.24743  -0.194033952381
 C3 0.243042 0.909044 0.24770  -0.194033952381
 C3 0.743564 0.409137 0.24743  -0.194033952381
 C3 0.743035 0.909042 0.24769  -0.194033952381
 C4 0.229056 0.442842 0.31711  0.0913143809524
 C4 0.228546 0.942762 0.31738  0.0913143809524
 C4 0.729047 0.44284 0.31710  0.0913143809524
 C4 0.728551 0.942762 0.31738  0.0913143809524
 C4 0.227755 0.005398 0.3171  0.0913143809524
 C4 0.228244 0.505474 0.31692  0.0913143809524
 C4 0.727751 0.005396 0.31717  0.0913143809524
 C4 0.728243 0.505473 0.31691  0.0913143809524
 C3 0.182741 0.034455 0.36364  -0.194033952381
 C3 0.183023 0.534442 0.36321  -0.194033952381
 C3 0.682738 0.034453 0.36363  -0.194033952381
 C3 0.683023 0.534441 0.36321  -0.194033952381
 C3 0.273414 0.038841 0.27129  -0.194033952381
 C3 0.274008 0.538979 0.27119  -0.194033952381
 C3 0.773411 0.03884 0.27129  -0.194033952381
 C3 0.774006 0.538978 0.27119  -0.194033952381
 C2 0.185919 0.093777 0.36400  0.191741047619
 C2 0.186094 0.59375 0.36357  0.191741047619
 C2 0.685915 0.093776 0.36400  0.191741047619
 C2 0.686091 0.593749 0.36357  0.191741047619
 C3 0.321832 0.445476 0.00445  -0.194033952381
 C3 0.321994 0.945544 0.00486  -0.194033952381
 C3 0.821831 0.445476 0.00446  -0.194033952381
 C3 0.821991 0.945543 0.00486  -0.194033952381
 C3 0.177216 0.428776 0.99568  -0.194033952381
 C3 0.177312 0.92875 0.99576  -0.194033952381
 C3 0.677217 0.428777 0.99569  -0.194033952381
 C3 0.67731 0.928749 0.99576  -0.194033952381
 C4 0.249697 0.468527 0.99996  0.0913143809524
 C4 0.249769 0.96854 9.2e-0  0.0913143809524
 C4 0.74969 0.468524 0.99993  0.0913143809524
 C4 0.749768 0.968539 9.4e-0  0.0913143809524
 C2 0.319404 0.386347 0.00393  0.191741047619
 C2 0.319637 0.886417 0.00438  0.191741047619
 C2 0.819397 0.386344 0.00390  0.191741047619
 C2 0.819633 0.886415 0.00438  0.191741047619
 C2 0.17934 0.370184 0.99587  0.191741047619
 C2 0.179522 0.870178 0.99608  0.191741047619
 C2 0.679335 0.370182 0.99585  0.191741047619
 C2 0.67952 0.870177 0.99608  0.191741047619
 C2 0.273041 0.097799 0.27404  0.191741047619
 C2 0.273529 0.597926 0.27395  0.191741047619
 C2 0.773037 0.097797 0.27404  0.191741047619
 C2 0.773525 0.597925 0.2739  0.191741047619
 S1 0.389111 0.274553 0.52922  1.40076771429
 S1 0.389219 0.773962 0.52944  1.40076771429
 S1 0.889111 0.274553 0.5292  1.40076771429
 S1 0.889218 0.773961 0.52944  1.40076771429
 S1 0.410578 0.283819 0.89275  1.40076771429
 S1 0.410463 0.783793 0.89253  1.40076771429
 S1 0.910577 0.283818 0.89275  1.40076771429
 S1 0.910465 0.783793 0.89253  1.40076771429
 S1 0.101267 0.233021 0.78019  1.40076771429
 S1 0.101608 0.733313 0.78048  1.40076771429
 S1 0.601268 0.233021 0.78019  1.40076771429
 S1 0.601609 0.733313 0.78048  1.40076771429
 S1 0.11077 0.226052 0.47056  1.40076771429
 S1 0.110877 0.725462 0.47079  1.40076771429
 S1 0.610769 0.226051 0.47056  1.40076771429
 S1 0.610877 0.725461 0.4707  1.40076771429
 S1 0.089523 0.216217 0.10747  1.40076771429
 S1 0.089413 0.716198 0.10725  1.40076771429
 S1 0.589525 0.216217 0.10747  1.40076771429
 S1 0.589411 0.716194 0.10725  1.40076771429
 S1 0.398383 0.2667 0.21953  1.40076771429
 S1 0.39872 0.766992 0.21981  1.40076771429
 S1 0.898385 0.266699 0.21953  1.40076771429
 S1 0.898718 0.766992 0.21981  1.40076771429
 N1 0.250626 0.151125 0.  -0.344858952381
 N1 0.250849 0.65115 0.  -0.344858952381
 N1 0.750623 0.151124 0.  -0.344858952381
 N1 0.750841 0.651147 0.  -0.344858952381
 N1 0.266168 0.175706 0.68051  -0.344858952381
 N1 0.265911 0.67567 0.68092  -0.344858952381
 N1 0.766165 0.175706 0.68051  -0.344858952381
 N1 0.765909 0.67567 0.68092  -0.344858952381
 N1 0.269059 0.374649 0.68009  -0.344858952381
 N1 0.269323 0.874686 0.67982  -0.344858952381
 N1 0.769061 0.374649 0.68010  -0.344858952381
 N1 0.769322 0.874686 0.67983  -0.344858952381
 N1 0.249142 0.348863 0.99914  -0.344858952381
 N1 0.249364 0.848888 0.99943  -0.344858952381
 N1 0.749146 0.348865 0.99916  -0.344858952381
 N1 0.749362 0.848887 0.99943  -0.344858952381
 N1 0.234077 0.324343 0.31908  -0.344858952381
 N1 0.233832 0.82431 0.31950  -0.344858952381
 N1 0.734084 0.324344 0.31908  -0.344858952381
 N1 0.733822 0.824307 0.31949  -0.344858952381
 N1 0.230663 0.125327 0.32017  -0.344858952381
 N1 0.230925 0.625364 0.31990  -0.344858952381
 N1 0.73066 0.125326 0.32017  -0.344858952381
 N1 0.730927 0.625364 0.31990  -0.344858952381
 O1 0.37776 0.275915 0.61937  -0.710703119048
 O1 0.377975 0.775166 0.61962  -0.710703119048
 O1 0.87776 0.275915 0.61937  -0.710703119048
 O1 0.877973 0.775165 0.61962  -0.710703119048
 O2 0.390754 0.330533 0.49655  -0.643625619048
 O2 0.390514 0.829919 0.49674  -0.643625619048
 O2 0.890753 0.330532 0.49655  -0.643625619048
 O2 0.890513 0.829918 0.4967  -0.643625619048
 O1 0.328519 0.225495 0.46671  -0.710703119048
 O1 0.328728 0.724892 0.46691  -0.710703119048
 O1 0.82852 0.225494 0.46671  -0.710703119048
 O1 0.828729 0.724892 0.46691  -0.710703119048
 O1 0.357712 0.243506 0.93203  -0.710703119048
 O1 0.356798 0.743227 0.93065  -0.710703119048
 O1 0.857709 0.243504 0.93203  -0.710703119048
 O1 0.8568 0.743227 0.93065  -0.710703119048
 O1 0.360201 0.306677 0.81678  -0.710703119048
 O1 0.360923 0.807451 0.81690  -0.710703119048
 O1 0.860202 0.306675 0.81678  -0.710703119048
 O1 0.860924 0.807451 0.81690  -0.710703119048
 O2 0.469774 0.330035 0.95808  -0.643625619048
 O2 0.469727 0.829477 0.95874  -0.643625619048
 O2 0.969772 0.330033 0.95808  -0.643625619048
 O2 0.969728 0.829478 0.95874  -0.643625619048
 O1 0.147999 0.216838 0.86533  -0.710703119048
 O1 0.147417 0.716072 0.86519  -0.710703119048
 O1 0.647999 0.216838 0.8653  -0.710703119048
 O1 0.647417 0.71607 0.86519  -0.710703119048
 O1 0.155393 0.276687 0.74688  -0.710703119048
 O1 0.156625 0.777348 0.74873  -0.710703119048
 O1 0.655394 0.276687 0.74688  -0.710703119048
 O1 0.656628 0.777349 0.74874  -0.710703119048
 O2 0.055843 0.182524 0.71589  -0.643625619048
 O2 0.056165 0.683422 0.71502  -0.643625619048
 O2 0.555843 0.182524 0.71589  -0.643625619048
 O2 0.556166 0.683423 0.71502  -0.643625619048
 O1 0.122012 0.224845 0.38038  -0.710703119048
 O1 0.122229 0.724102 0.38063  -0.710703119048
 O1 0.622011 0.224844 0.3803  -0.710703119048
 O1 0.62223 0.724101 0.38063  -0.710703119048
 O2 0.109477 0.170094 0.50326  -0.643625619048
 O2 0.109233 0.669481 0.5034  -0.643625619048
 O2 0.609477 0.170094 0.50326  -0.643625619048
 O2 0.609232 0.669481 0.50344  -0.643625619048
 O1 0.171258 0.275123 0.53309  -0.710703119048
 O1 0.171466 0.774521 0.53329  -0.710703119048
 O1 0.671259 0.275122 0.53309  -0.710703119048
 O1 0.671468 0.774519 0.53329  -0.710703119048
 O1 0.14319 0.256779 0.06934  -0.710703119048
 O1 0.142281 0.756512 0.0679  -0.710703119048
 O1 0.643191 0.256779 0.06934  -0.710703119048
 O1 0.642276 0.756507 0.0679  -0.710703119048
 O1 0.139064 0.192559 0.18310  -0.710703119048
 O1 0.139789 0.69334 0.1832  -0.710703119048
 O1 0.639066 0.192558 0.183  -0.710703119048
 O1 0.639791 0.693338 0.18322  -0.710703119048
 O2 0.030261 0.170531 0.04126  -0.643625619048
 O2 0.03022 0.669983 0.04192  -0.643625619048
 O2 0.530262 0.170531 0.04126  -0.643625619048
 O2 0.530216 0.669978 0.04192  -0.643625619048
 O1 0.352565 0.283933 0.13481  -0.710703119048
 O1 0.351986 0.783175 0.13467  -0.710703119048
 O1 0.852563 0.283931 0.13481  -0.710703119048
 O1 0.851985 0.783173 0.13467  -0.710703119048
 O1 0.343375 0.222669 0.25129  -0.710703119048
 O1 0.344592 0.723325 0.25312  -0.710703119048
 O1 0.84338 0.222669 0.25130  -0.710703119048
 O1 0.844591 0.723324 0.25312  -0.710703119048
 O2 0.443832 0.316594 0.28498  -0.643625619048
 O2 0.444144 0.817488 0.28411  -0.643625619048
 O2 0.943835 0.316595 0.28498  -0.643625619048
 O2 0.944141 0.817488 0.28411  -0.643625619048
