#======================================================================

# CRYSTAL DATA

#----------------------------------------------------------------------

data_VESTA_phase_1


_pd_phase_name                         MOF
_cell_length_a                         23.71600
_cell_length_b                         14.39800
_cell_length_c                         17.46200
_cell_angle_alpha                      89.92200
_cell_angle_beta                       93.42100
_cell_angle_gamma                      87.60000
_symmetry_space_group_name_H-M         "P 1"
_symmetry_Int_Tables_number            1

loop_
_symmetry_equiv_pos_as_xyz
   "x, y, z"

loop_
   _atom_site_label
   _atom_site_fract_x
   _atom_site_fract_y
   _atom_site_fract_z
 _atom_site_charge
 Cd1 0.00159 0.636617 0.98508  0.959233205128
 Cd1 0.501129 0.636202 0.98445  0.959233205128
 Cd1 0.005041 0.360069 0.01662  0.959233205128
 Cd1 0.505269 0.359601 0.0162  0.959233205128
 Cd1 0.002862 0.8606 0.48441  0.959233205128
 Cd1 0.502926 0.861285 0.48404  0.959233205128
 Cd1 0.998337 0.136493 0.51627  0.959233205128
 Cd1 0.498044 0.137262 0.51611  0.959233205128
 H1 0.396054 0.541194 0.88920  0.101752750583
 H1 0.896084 0.552596 0.88702  0.101752750583
 H1 0.292326 0.734922 0.06934  0.101752750583
 H1 0.79347 0.724889 0.08159  0.101752750583
 H1 0.397163 0.731997 0.0663  0.101752750583
 H1 0.898526 0.722706 0.07803  0.101752750583
 H1 0.290945 0.533757 0.88535  0.101752750583
 H1 0.790712 0.546192 0.88256  0.101752750583
 H1 0.402348 0.461144 0.10630  0.101752750583
 H1 0.903929 0.454996 0.1150  0.101752750583
 H1 0.294679 0.260581 0.92946  0.101752750583
 H1 0.792809 0.282159 0.92100  0.101752750583
 H1 0.399141 0.268826 0.93020  0.101752750583
 H1 0.897984 0.28901 0.92199  0.101752750583
 H1 0.297395 0.46396 0.11184  0.101752750583
 H1 0.798771 0.457756 0.12189  0.101752750583
 H1 0.100723 0.915051 0.37354  0.101752750583
 H1 0.600425 0.915153 0.37156  0.101752750583
 H1 0.218723 0.810919 0.60074  0.101752750583
 H1 0.718562 0.808239 0.59779  0.101752750583
 H1 0.11322 0.816795 0.59677  0.101752750583
 H1 0.612946 0.815898 0.59439  0.101752750583
 H1 0.20541 0.911101 0.36627  0.101752750583
 H1 0.705083 0.909516 0.36364  0.101752750583
 H1 0.108887 0.035781 0.60169  0.101752750583
 H1 0.608674 0.032879 0.6002  0.101752750583
 H1 0.199938 0.248677 0.43249  0.101752750583
 H1 0.70043 0.245618 0.43173  0.101752750583
 H1 0.095788 0.239399 0.43292  0.101752750583
 H1 0.596187 0.237493 0.4322  0.101752750583
 H1 0.21418 0.032182 0.60570  0.101752750583
 H1 0.71392 0.02821 0.60411  0.101752750583
 H1 0.112282 0.398874 0.13307  0.101752750583
 H1 0.613261 0.370125 0.13763  0.101752750583
 H1 0.21055 0.327476 0.89922  0.101752750583
 H1 0.710436 0.369383 0.89699  0.101752750583
 H1 0.105628 0.327643 0.90341  0.101752750583
 H1 0.60553 0.365558 0.90050  0.101752750583
 H1 0.217626 0.397559 0.14044  0.101752750583
 H1 0.718905 0.371301 0.14509  0.101752750583
 H1 0.099415 0.593463 0.86900  0.101752750583
 H1 0.599538 0.626467 0.86738  0.101752750583
 H1 0.217257 0.656684 0.10244  0.101752750583
 H1 0.71807 0.631425 0.10772  0.101752750583
 H1 0.112198 0.649837 0.10135  0.101752750583
 H1 0.612755 0.627284 0.10450  0.101752750583
 H1 0.203685 0.600347 0.85885  0.101752750583
 H1 0.704384 0.631375 0.85965  0.101752750583
 H1 0.400491 0.083754 0.62746  0.101752750583
 H1 0.900681 0.081508 0.62702  0.101752750583
 H1 0.282267 0.191309 0.40156  0.101752750583
 H1 0.782557 0.186627 0.4002  0.101752750583
 H1 0.387711 0.185887 0.40534  0.101752750583
 H1 0.888004 0.181133 0.4042  0.101752750583
 H1 0.296005 0.088586 0.63534  0.101752750583
 H1 0.796013 0.085296 0.6344  0.101752750583
 H1 0.392716 0.965143 0.40184  0.101752750583
 H1 0.892649 0.9619 0.39864  0.101752750583
 H1 0.300726 0.749944 0.56805  0.101752750583
 H1 0.800432 0.748707 0.56631  0.101752750583
 H1 0.404911 0.757324 0.56714  0.101752750583
 H1 0.90466 0.757065 0.56634  0.101752750583
 H1 0.287382 0.969919 0.39789  0.101752750583
 H1 0.787261 0.966243 0.39400  0.101752750583
 H1 0.987115 0.598553 0.78573  0.101752750583
 H1 0.486605 0.598565 0.78614  0.101752750583
 H1 0.9814 0.484894 0.55626  0.101752750583
 H1 0.482052 0.485644 0.5564  0.101752750583
 H1 0.99716 0.301764 0.7506  0.101752750583
 H1 0.502491 0.302312 0.75056  0.101752750583
 H2 0.988193 0.647686 0.57952  0.334968205128
 H2 0.487867 0.648596 0.58004  0.334968205128
 H2 0.989455 0.696073 0.66739  0.334968205128
 H2 0.488708 0.69664 0.66806  0.334968205128
 H1 0.01416 0.398177 0.21565  0.101752750583
 H1 0.513775 0.398644 0.21499  0.101752750583
 H1 0.018592 0.511541 0.44518  0.101752750583
 H1 0.517943 0.51204 0.44450  0.101752750583
 H1 0.006455 0.695004 0.25094  0.101752750583
 H1 0.50539 0.695456 0.25023  0.101752750583
 H2 0.01196 0.348953 0.42187  0.334968205128
 H2 0.512455 0.349654 0.42151  0.334968205128
 H2 0.010757 0.300465 0.33398  0.334968205128
 H2 0.510329 0.300959 0.33379  0.334968205128
 H1 0.983898 0.900856 0.28590  0.101752750583
 H1 0.48252 0.902617 0.28710  0.101752750583
 H1 0.984411 0.013678 0.05618  0.101752750583
 H1 0.485663 0.012978 0.05702  0.101752750583
 H1 0.002041 0.194475 0.25011  0.101752750583
 H1 0.50443 0.195008 0.24990  0.101752750583
 H2 0.985857 0.850333 0.07972  0.334968205128
 H2 0.481276 0.850952 0.08034  0.334968205128
 H2 0.98719 0.80214 0.16784  0.334968205128
 H2 0.485209 0.802617 0.16881  0.334968205128
 H1 0.01714 0.09573 0.71436  0.101752750583
 H1 0.489471 0.097376 0.7112  0.101752750583
 H1 0.020006 0.98218 0.944  0.101752750583
 H1 0.478608 0.983614 0.93891  0.101752750583
 H1 0.004365 0.800891 0.75033  0.101752750583
 H1 0.50869 0.801406 0.75053  0.101752750583
 H2 0.018394 0.146282 0.92098  0.334968205128
 H2 0.48087 0.147038 0.91655  0.334968205128
 H2 0.017308 0.194513 0.83235  0.334968205128
 H2 0.484965 0.195467 0.82911  0.334968205128
 C1 0.370972 0.582849 0.92785  0.187178205128
 C1 0.871249 0.589778 0.92869  0.187178205128
 C2 0.313317 0.689415 0.029  -0.183706794872
 C2 0.814306 0.684405 0.03793  -0.183706794872
 C1 0.371893 0.688703 0.02752  0.187178205128
 C1 0.872882 0.684036 0.03610  0.187178205128
 C3 0.282089 0.633174 0.97804  -0.0114942948718
 C3 0.782767 0.634633 0.98249  -0.0114942948718
 C2 0.312402 0.579889 0.92583  -0.183706794872
 C2 0.81266 0.587163 0.92650  -0.183706794872
 C1 0.376412 0.418157 0.06816  0.187178205128
 C1 0.877274 0.418041 0.07324  0.187178205128
 C2 0.316303 0.30775 0.96888  -0.183706794872
 C2 0.815434 0.32294 0.96442  -0.183706794872
 C1 0.374819 0.311376 0.96924  0.187178205128
 C1 0.873956 0.3257 0.96485  0.187178205128
 C3 0.286236 0.362809 0.02027  -0.0114942948718
 C3 0.786399 0.370578 0.02121  -0.0114942948718
 C2 0.317957 0.418458 0.0712  -0.183706794872
 C2 0.818833 0.418467 0.07689  -0.183706794872
 C1 0.128742 0.892766 0.42254  0.187178205128
 C1 0.628494 0.892181 0.42031  0.187178205128
 C2 0.194553 0.833598 0.5485  -0.183706794872
 C2 0.694353 0.831483 0.54580  -0.183706794872
 C1 0.135846 0.83735 0.54724  0.187178205128
 C1 0.635672 0.83612 0.54485  0.187178205128
 C3 0.221812 0.861161 0.48352  -0.0114942948718
 C3 0.721583 0.859033 0.48073  -0.0114942948718
 C2 0.187217 0.890817 0.41929  -0.183706794872
 C2 0.68695 0.8893 0.41671  -0.183706794872
 C1 0.131278 0.081093 0.56493  0.187178205128
 C1 0.631142 0.078199 0.56356  0.187178205128
 C2 0.182099 0.198651 0.47009  -0.183706794872
 C2 0.6824 0.195593 0.46914  -0.183706794872
 C1 0.123622 0.194602 0.4704  0.187178205128
 C1 0.623884 0.192182 0.46958  0.187178205128
 C3 0.216934 0.140057 0.51875  -0.0114942948718
 C3 0.717059 0.136475 0.51758  -0.0114942948718
 C2 0.189934 0.080503 0.56726  -0.183706794872
 C2 0.689824 0.076973 0.56589  -0.183706794872
 C1 0.136068 0.383296 0.08273  0.187178205128
 C1 0.636836 0.370545 0.0858  0.187178205128
 C2 0.190953 0.342688 0.95289  -0.183706794872
 C2 0.690958 0.368802 0.95193  -0.183706794872
 C1 0.132401 0.343606 0.95427  0.187178205128
 C1 0.632487 0.367866 0.95321  0.187178205128
 C3 0.22382 0.362794 0.01991  -0.0114942948718
 C3 0.724077 0.370476 0.02119  -0.0114942948718
 C2 0.194789 0.383169 0.08606  -0.183706794872
 C2 0.695571 0.371614 0.08941  -0.183706794872
 C1 0.127452 0.606509 0.91929  0.187178205128
 C1 0.627789 0.626229 0.91901  0.187178205128
 C2 0.193015 0.643096 0.04896  -0.183706794872
 C2 0.693646 0.630688 0.05287  -0.183706794872
 C1 0.134617 0.638381 0.04918  0.187178205128
 C1 0.635093 0.627364 0.05168  0.187178205128
 C3 0.220013 0.628952 0.98026  -0.0114942948718
 C3 0.72059 0.63148 0.98348  -0.0114942948718
 C2 0.185615 0.610168 0.91432  -0.183706794872
 C2 0.686115 0.628974 0.91538  -0.183706794872
 C1 0.372466 0.107382 0.57890  0.187178205128
 C1 0.872612 0.104122 0.5781  0.187178205128
 C2 0.30648 0.168141 0.45356  -0.183706794872
 C2 0.806726 0.163768 0.45240  -0.183706794872
 C1 0.365176 0.164621 0.45474  0.187178205128
 C1 0.86543 0.160233 0.45369  0.187178205128
 C3 0.279316 0.139771 0.51845  -0.0114942948718
 C3 0.779476 0.135819 0.51734  -0.0114942948718
 C2 0.314019 0.109512 0.58238  -0.183706794872
 C2 0.814137 0.105938 0.58145  -0.183706794872
 C1 0.370135 0.919204 0.43785  0.187178205128
 C1 0.869971 0.916491 0.43498  0.187178205128
 C2 0.318801 0.800401 0.53108  -0.183706794872
 C2 0.81853 0.79878 0.52901  -0.183706794872
 C1 0.377322 0.803517 0.53047  0.187178205128
 C1 0.877049 0.802339 0.52890  0.187178205128
 C3 0.284212 0.860351 0.48327  -0.0114942948718
 C3 0.783985 0.857965 0.48048  -0.0114942948718
 C2 0.311461 0.920538 0.43558  -0.183706794872
 C2 0.811294 0.917511 0.43232  -0.183706794872
 C4 0.996812 0.430165 0.86166  0.665658205128
 C4 0.498307 0.429915 0.86163  0.665658205128
 C3 0.992386 0.448481 0.77705  -0.0114942948718
 C3 0.494351 0.44868 0.77713  -0.0114942948718
 C3 0.989907 0.385368 0.64843  -0.0114942948718
 C3 0.492591 0.385982 0.64843  -0.0114942948718
 C5 0.983171 0.553612 0.66677  0.302513205128
 C5 0.483708 0.554032 0.66708  0.302513205128
 C4 0.992527 0.302117 0.59702  0.665658205128
 C4 0.495158 0.30278 0.59699  0.665658205128
 C2 0.987354 0.53914 0.74696  -0.183706794872
 C2 0.487937 0.539341 0.74723  -0.183706794872
 C2 0.984537 0.475367 0.61830  -0.183706794872
 C2 0.4858 0.475965 0.61845  -0.183706794872
 C2 0.993495 0.371925 0.72781  -0.183706794872
 C2 0.496937 0.372372 0.72778  -0.183706794872
 C4 0.006815 0.5664 0.13990  0.665658205128
 C4 0.506143 0.566863 0.13913  0.665658205128
 C3 0.010241 0.548264 0.2245  -0.0114942948718
 C3 0.509435 0.548701 0.22378  -0.0114942948718
 C3 0.011756 0.611182 0.35310  -0.0114942948718
 C3 0.510771 0.611703 0.35245  -0.0114942948718
 C5 0.0 0.442921 0.33466  0.302513205128
 C5 0.517215 0.443437 0.33399  0.302513205128
 C4 0.008805 0.694222 0.40467  0.665658205128
 C4 0.507657 0.694628 0.40422  0.665658205128
 C2 0.0 0.457519 0.25450  -0.183706794872
 C2 0.513561 0.457991 0.25383  -0.183706794872
 C2 0.016232 0.521125 0.38316  -0.183706794872
 C2 0.515546 0.521638 0.38248  -0.183706794872
 C2 0.009299 0.6248 0.27375  -0.183706794872
 C2 0.508329 0.625267 0.27307  -0.183706794872
 C4 0.993716 0.067622 0.36129  0.665658205128
 C4 0.493871 0.069665 0.36149  0.665658205128
 C3 0.99246 0.049437 0.27681  -0.0114942948718
 C3 0.493054 0.050642 0.27724  -0.0114942948718
 C3 0.994381 0.111796 0.14807  -0.0114942948718
 C3 0.496093 0.111653 0.14831  -0.0114942948718
 C5 0.983149 0.945414 0.1668  0.302513205128
 C5 0.482589 0.946003 0.16783  0.302513205128
 C4 0.999425 0.193786 0.09614  0.665658205128
 C4 0.501633 0.19303 0.09597  0.665658205128
 C2 0.986217 0.959723 0.24694  -0.183706794872
 C2 0.48579 0.960956 0.24788  -0.183706794872
 C2 0.987028 0.022917 0.11818  -0.183706794872
 C2 0.487757 0.022817 0.11891  -0.183706794872
 C2 0.996825 0.125135 0.22741  -0.183706794872
 C2 0.498497 0.125688 0.22753  -0.183706794872
 C4 0.008143 0.928744 0.63900  0.665658205128
 C4 0.504309 0.92928 0.63838  0.665658205128
 C3 0.010733 0.946688 0.7235  -0.0114942948718
 C3 0.498728 0.947579 0.72197  -0.0114942948718
 C3 0.011177 0.88382 0.85232  -0.0114942948718
 C3 0.49399 0.884655 0.84996  -0.0114942948718
 C5 0.019957 0.050801 0.83352  0.302513205128
 C5 0.482627 0.052491 0.82903  0.302513205128
 C4 0.007527 0.801534 0.90427  0.665658205128
 C4 0.496448 0.801988 0.9024  0.665658205128
 C2 0.016056 0.036597 0.75332  -0.183706794872
 C2 0.489966 0.037985 0.75020  -0.183706794872
 C2 0.017206 0.972975 0.882  -0.183706794872
 C2 0.484437 0.974307 0.87799  -0.183706794872
 C2 0.008401 0.870498 0.7729  -0.183706794872
 C2 0.501191 0.871223 0.771  -0.183706794872
 N1 0.400514 0.635352 0.9783  -0.300956794872
 N1 0.901101 0.636762 0.98279  -0.300956794872
 N1 0.404573 0.366341 0.01762  -0.300956794872
 N1 0.904501 0.373063 0.01792  -0.300956794872
 N1 0.103261 0.867129 0.48559  -0.300956794872
 N1 0.603093 0.866805 0.48349  -0.300956794872
 N1 0.098432 0.136302 0.51688  -0.300956794872
 N1 0.598454 0.13397 0.515  -0.300956794872
 N1 0.105134 0.364182 0.01795  -0.300956794872
 N1 0.605609 0.368839 0.01895  -0.300956794872
 N1 0.102158 0.620061 0.98559  -0.300956794872
 N1 0.602473 0.625007 0.9860  -0.300956794872
 N1 0.397841 0.13397 0.51604  -0.300956794872
 N1 0.898053 0.130233 0.5152  -0.300956794872
 N1 0.40279 0.862406 0.48487  -0.300956794872
 N1 0.902546 0.860761 0.48294  -0.300956794872
 N2 0.975768 0.641963 0.63460  -0.725396794872
 N2 0.47543 0.642422 0.63508  -0.725396794872
 N2 0.02446 0.354526 0.36681  -0.725396794872
 N2 0.52446 0.355094 0.36620  -0.725396794872
 N2 0.974131 0.858505 0.13502  -0.725396794872
 N2 0.472035 0.859411 0.13661  -0.725396794872
 N2 0.028649 0.137471 0.86516  -0.725396794872
 N2 0.471538 0.140307 0.85873  -0.725396794872
 O1 0.994961 0.496624 0.90980  -0.618273461538
 O1 0.496157 0.496134 0.91003  -0.618273461538
 O1 0.002125 0.3451 0.88394  -0.618273461538
 O1 0.503657 0.344817 0.88372  -0.618273461538
 O1 0.994982 0.221601 0.62906  -0.618273461538
 O1 0.498515 0.22228 0.62910  -0.618273461538
 O2 0.992427 0.312555 0.52461  -0.616936794872
 O2 0.493729 0.313107 0.52449  -0.616936794872
 O1 0.005365 0.49954 0.09210  -0.618273461538
 O1 0.503536 0.5003 0.09099  -0.618273461538
 O1 0.005454 0.651362 0.11732  -0.618273461538
 O1 0.506185 0.651763 0.11672  -0.618273461538
 O1 0.007408 0.774871 0.37290  -0.618273461538
 O1 0.506189 0.775401 0.37260  -0.618273461538
 O2 0.007524 0.683545 0.47684  -0.616936794872
 O2 0.50645 0.683721 0.47639  -0.616936794872
 O1 0.992591 0.001054 0.4096  -0.618273461538
 O1 0.493745 0.003428 0.41034  -0.618273461538
 O1 0.994869 0.152412 0.38339  -0.618273461538
 O1 0.493815 0.154679 0.3831  -0.618273461538
 O1 0.007781 0.272981 0.12791  -0.618273461538
 O1 0.513644 0.271247 0.12717  -0.618273461538
 O2 0.994845 0.183986 0.02370  -0.616936794872
 O2 0.493759 0.183917 0.02380  -0.616936794872
 O1 0.007516 0.995461 0.59047  -0.618273461538
 O1 0.50136 0.995865 0.58963  -0.618273461538
 O1 0.007512 0.84392 0.61684  -0.618273461538
 O1 0.511093 0.844556 0.61707  -0.618273461538
 O1 0.004876 0.720941 0.87283  -0.618273461538
 O1 0.5061 0.721615 0.87272  -0.618273461538
 O2 0.007272 0.812365 0.97649  -0.616936794872
 O2 0.488918 0.812325 0.97345  -0.616936794872
