#======================================================================

# CRYSTAL DATA

#----------------------------------------------------------------------

data_VESTA_phase_1


_pd_phase_name                         MOF
_cell_length_a                         14.64800
_cell_length_b                         15.57700
_cell_length_c                         17.02100
_cell_angle_alpha                      89.99800
_cell_angle_beta                       89.99700
_cell_angle_gamma                      116.49600
_symmetry_space_group_name_H-M         "P 1"
_symmetry_Int_Tables_number            1

loop_
_symmetry_equiv_pos_as_xyz
   "x, y, z"

loop_
   _atom_site_label
   _atom_site_fract_x
   _atom_site_fract_y
   _atom_site_fract_z
 _atom_site_charge
 Cd1 0.844217 0.21189 0.3687  1.01870396825
 Cd1 0.127061 0.273156 0.36542  1.01870396825
 Cd1 0.655692 0.288111 0.86876  1.01870396825
 Cd1 0.37288 0.226832 0.86542  1.01870396825
 Cd1 0.155731 0.788092 0.63127  1.01870396825
 Cd1 0.872885 0.726823 0.63457  1.01870396825
 Cd1 0.344255 0.711872 0.13124  1.01870396825
 Cd1 0.627066 0.773148 0.13457  1.01870396825
 H1 0.327697 0.344975 0.48200  0.090118030754
 H1 0.440613 0.201293 0.65783  0.090118030754
 H1 0.545181 0.318337 0.65623  0.090118030754
 H1 0.351607 0.096804 0.57592  0.090118030754
 H1 0.647572 0.158657 0.48486  0.090118030754
 H1 0.65181 0.416972 0.58326  0.090118030754
 H1 0.897831 0.421828 0.44354  0.090118030754
 H1 0.9316 0.521449 0.31440  0.090118030754
 H1 0.850528 0.635232 0.29067  0.090118030754
 H1 0.91855 0.634121 0.37983  0.090118030754
 H1 0.993982 0.938895 0.36901  0.090118030754
 H1 0.789688 0.970848 0.20032  0.090118030754
 H1 0.749041 0.697401 0.25686  0.090118030754
 H1 0.177159 0.773548 0.21178  0.090118030754
 H1 0.192017 0.513147 0.20573  0.090118030754
 H1 0.098746 0.071995 0.4344  0.090118030754
 H2 0.0 0.311082 0.47688  0.419123968254
 H2 0.963884 0.186928 0.48197  0.419123968254
 H1 0.172216 0.155018 0.98200  0.090118030754
 H1 0.059324 0.298699 0.15782  0.090118030754
 H1 0.954716 0.181665 0.15624  0.090118030754
 H1 0.148351 0.403197 0.0759  0.090118030754
 H1 0.852318 0.341362 0.98489  0.090118030754
 H1 0.848133 0.083039 0.08325  0.090118030754
 H1 0.602095 0.078183 0.94357  0.090118030754
 H1 0.568285 0.978487 0.81448  0.090118030754
 H1 0.649414 0.86473 0.79068  0.090118030754
 H1 0.581382 0.865831 0.87984  0.090118030754
 H1 0.505969 0.561064 0.86905  0.090118030754
 H1 0.710254 0.529125 0.70032  0.090118030754
 H1 0.750903 0.802567 0.75687  0.090118030754
 H1 0.322825 0.726421 0.71179  0.090118030754
 H1 0.30796 0.98682 0.70575  0.090118030754
 H1 0.401226 0.427988 0.93450  0.090118030754
 H2 0.48139 0.188937 0.97689  0.419123968254
 H2 0.535995 0.313094 0.98198  0.419123968254
 H1 0.672253 0.655008 0.51799  0.090118030754
 H1 0.559337 0.798689 0.34217  0.090118030754
 H1 0.454768 0.681646 0.34376  0.090118030754
 H1 0.64834 0.903178 0.4240  0.090118030754
 H1 0.352374 0.841326 0.51513  0.090118030754
 H1 0.348139 0.58301 0.41673  0.090118030754
 H1 0.102115 0.578154 0.55645  0.090118030754
 H1 0.068342 0.478528 0.68558  0.090118030754
 H1 0.14942 0.364747 0.70933  0.090118030754
 H1 0.081397 0.365856 0.6201  0.090118030754
 H1 0.005968 0.061082 0.6309  0.090118030754
 H1 0.21026 0.02913 0.79968  0.090118030754
 H1 0.250898 0.302576 0.74314  0.090118030754
 H1 0.822791 0.226434 0.78822  0.090118030754
 H1 0.807925 0.486832 0.79426  0.090118030754
 H1 0.901206 0.927989 0.56551  0.090118030754
 H2 0.981441 0.688905 0.52311  0.419123968254
 H2 0.03606 0.813059 0.51802  0.419123968254
 H1 0.827734 0.844966 0.01  0.090118030754
 H1 0.940628 0.701282 0.84217  0.090118030754
 H1 0.045236 0.818317 0.84375  0.090118030754
 H1 0.851595 0.596786 0.9240  0.090118030754
 H1 0.147629 0.658622 0.01510  0.090118030754
 H1 0.151815 0.916944 0.91674  0.090118030754
 H1 0.397852 0.921802 0.0564  0.090118030754
 H1 0.431656 0.02149 0.18552  0.090118030754
 H1 0.350535 0.135249 0.20932  0.090118030754
 H1 0.418563 0.134145 0.12015  0.090118030754
 H1 0.493978 0.438912 0.13094  0.090118030754
 H1 0.289694 0.470854 0.29967  0.090118030754
 H1 0.249038 0.19741 0.24312  0.090118030754
 H1 0.677126 0.273561 0.28819  0.090118030754
 H1 0.691984 0.01316 0.29425  0.090118030754
 H1 0.598725 0.571997 0.06550  0.090118030754
 H2 0.518557 0.811052 0.02310  0.419123968254
 H2 0.463947 0.686896 0.01801  0.419123968254
 C1 0.298968 0.267738 0.48968  0.101810218254
 C2 0.352291 0.230433 0.53565  0.189858968254
 C3 0.493052 0.258788 0.61974  0.304568968254
 C4 0.313074 0.131088 0.54326  -0.110911031746
 C5 0.220125 0.072498 0.50747  -0.154688531746
 C6 0.172547 0.964865 0.51884  0.674528968254
 C1 0.683932 0.236108 0.49403  0.101810218254
 C2 0.636774 0.278877 0.54082  0.189858968254
 C4 0.685023 0.378277 0.55004  -0.110911031746
 C5 0.780558 0.431043 0.51555  -0.154688531746
 C6 0.836543 0.538341 0.52813  0.674528968254
 C1 0.823304 0.383121 0.47072  0.101810218254
 C6 0.014356 0.400888 0.28553  0.674528968254
 C5 0.056439 0.505722 0.26299  -0.154688531746
 C4 0.0 0.558633 0.28420  -0.110911031746
 C2 0.048143 0.656636 0.2669  0.189858968254
 C3 0.913877 0.677714 0.3307  0.304568968254
 C2 0.876368 0.811592 0.31796  0.189858968254
 C4 0.930295 0.910679 0.32786  -0.110911031746
 C5 0.89935 0.97018 0.28580  -0.154688531746
 C1 0.816631 0.927645 0.23441  0.101810218254
 C1 0.794444 0.774326 0.26561  0.101810218254
 C6 0.950934 0.078185 0.29612  0.674528968254
 C1 0.141525 0.697422 0.22650  0.101810218254
 C1 0.149226 0.551693 0.22342  0.101810218254
 C1 0.171024 0.114966 0.46335  0.101810218254
 C1 0.200957 0.232255 0.98967  0.101810218254
 C2 0.14765 0.269564 0.03565  0.189858968254
 C3 0.006879 0.241214 0.11974  0.304568968254
 C4 0.186866 0.368909 0.0432  -0.110911031746
 C5 0.279851 0.42749 0.00749  -0.154688531746
 C6 0.327446 0.535087 0.01887  0.674528968254
 C1 0.815972 0.263908 0.99405  0.101810218254
 C2 0.863137 0.221139 0.04084  0.189858968254
 C4 0.81492 0.121733 0.05003  -0.110911031746
 C5 0.719371 0.068969 0.01558  -0.154688531746
 C6 0.663399 0.961635 0.02814  0.674528968254
 C1 0.676627 0.116886 0.97074  0.101810218254
 C6 0.485558 0.099071 0.78565  0.674528968254
 C5 0.443494 0.994222 0.76306  -0.154688531746
 C4 0.495656 0.941317 0.7842  -0.110911031746
 C2 0.451815 0.843319 0.76698  0.189858968254
 C3 0.586063 0.82224 0.83077  0.304568968254
 C2 0.623576 0.688373 0.8179  0.189858968254
 C4 0.569653 0.589285 0.82789  -0.110911031746
 C5 0.600596 0.529787 0.78583  -0.154688531746
 C1 0.683305 0.572322 0.73442  0.101810218254
 C1 0.705503 0.725641 0.76562  0.101810218254
 C6 0.549005 0.421811 0.79613  0.674528968254
 C1 0.358454 0.802544 0.72652  0.101810218254
 C1 0.350756 0.948276 0.72343  0.101810218254
 C1 0.328918 0.385023 0.9633  0.101810218254
 C1 0.700982 0.732245 0.51032  0.101810218254
 C2 0.647656 0.769549 0.46435  0.189858968254
 C3 0.506897 0.741194 0.38026  0.304568968254
 C4 0.686876 0.868894 0.45673  -0.110911031746
 C5 0.779823 0.927485 0.49252  -0.154688531746
 C6 0.8274 0.035118 0.48115  0.674528968254
 C1 0.316014 0.763874 0.50597  0.101810218254
 C2 0.363173 0.721105 0.45917  0.189858968254
 C4 0.314924 0.621706 0.44996  -0.110911031746
 C5 0.219389 0.568939 0.48444  -0.154688531746
 C6 0.163404 0.461641 0.47186  0.674528968254
 C1 0.176641 0.616862 0.52927  0.101810218254
 C6 0.985585 0.599088 0.71445  0.674528968254
 C5 0.943503 0.494256 0.73700  -0.154688531746
 C4 0.99568 0.441346 0.71579  -0.110911031746
 C2 0.951802 0.343344 0.73305  0.189858968254
 C3 0.08607 0.322264 0.66924  0.304568968254
 C2 0.123577 0.188386 0.68203  0.189858968254
 C4 0.06965 0.089298 0.6721  -0.110911031746
 C5 0.100602 0.029799 0.71419  -0.154688531746
 C1 0.183312 0.072332 0.76559  0.101810218254
 C1 0.205498 0.225651 0.73439  0.101810218254
 C6 0.049019 0.921794 0.70387  0.674528968254
 C1 0.858422 0.302559 0.77349  0.101810218254
 C1 0.850718 0.448287 0.7765  0.101810218254
 C1 0.828928 0.885018 0.53664  0.101810218254
 C1 0.798993 0.767729 0.01032  0.101810218254
 C2 0.852296 0.73042 0.96434  0.189858968254
 C3 0.993071 0.758768 0.88025  0.304568968254
 C4 0.813085 0.631074 0.95675  -0.110911031746
 C5 0.720097 0.572495 0.99250  -0.154688531746
 C6 0.672499 0.464898 0.9811  0.674528968254
 C1 0.183975 0.736076 0.00594  0.101810218254
 C2 0.136811 0.778844 0.95915  0.189858968254
 C4 0.185026 0.87825 0.94997  -0.110911031746
 C5 0.280577 0.931014 0.98442  -0.154688531746
 C6 0.336549 0.038347 0.97185  0.674528968254
 C1 0.323318 0.883098 0.02926  0.101810218254
 C6 0.514382 0.900904 0.21436  0.674528968254
 C5 0.556448 0.005756 0.23694  -0.154688531746
 C4 0.504288 0.058661 0.21575  -0.110911031746
 C2 0.548131 0.156661 0.23301  0.189858968254
 C3 0.413884 0.177737 0.16922  0.304568968254
 C2 0.376368 0.311604 0.18200  0.189858968254
 C4 0.430292 0.410692 0.17210  -0.110911031746
 C5 0.399354 0.47019 0.2141  -0.154688531746
 C1 0.31664 0.427655 0.26557  0.101810218254
 C1 0.294439 0.274336 0.23436  0.101810218254
 C6 0.450948 0.578167 0.20386  0.674528968254
 C1 0.641494 0.197437 0.27347  0.101810218254
 C1 0.649188 0.051703 0.27657  0.101810218254
 C1 0.671035 0.614962 0.03666  0.101810218254
 N1 0.774619 0.287442 0.45921  -0.328123531746
 N1 0.766284 0.832114 0.22389  -0.328123531746
 N1 0.210791 0.210761 0.45370  -0.328123531746
 N1 0.190158 0.645742 0.20489  -0.328123531746
 N1 0.725284 0.212572 0.95925  -0.328123531746
 N1 0.733663 0.667856 0.72390  -0.328123531746
 N1 0.28916 0.289226 0.95372  -0.328123531746
 N1 0.30982 0.854226 0.70492  -0.328123531746
 N1 0.225328 0.71254 0.54078  -0.328123531746
 N1 0.233661 0.167864 0.77611  -0.328123531746
 N1 0.78916 0.789223 0.54629  -0.328123531746
 N1 0.809787 0.354238 0.79510  -0.328123531746
 N1 0.274664 0.787411 0.0407  -0.328123531746
 N1 0.266281 0.332122 0.27609  -0.328123531746
 N1 0.71079 0.710759 0.0462  -0.328123531746
 N1 0.690127 0.145755 0.29507  -0.328123531746
 O1 0.791485 0.575228 0.57034  -0.612524365079
 O2 0.440606 0.296285 0.57048  -0.289063531746
 O1 0.223052 0.933506 0.56114  -0.612524365079
 O2 0.545738 0.217583 0.57474  -0.289063531746
 O3 0.923791 0.582261 0.49607  -0.583121031746
 O1 0.898129 0.12189 0.27999  -0.612524365079
 O1 0.923157 0.361738 0.31149  -0.612524365079
 O2 0.007782 0.717568 0.28634  -0.289063531746
 O2 0.903473 0.754455 0.36528  -0.289063531746
 O1 0.073765 0.362333 0.27737  -0.612524365079
 O3 0.086231 0.915926 0.48712  -0.583121031746
 O1 0.043082 0.115477 0.31998  -0.612524365079
 O4 0.988973 0.247369 0.44638  -0.826181031746
 O1 0.70847 0.924745 0.07034  -0.612524365079
 O2 0.059315 0.203715 0.07047  -0.289063531746
 O1 0.276924 0.566455 0.06114  -0.612524365079
 O2 0.954165 0.282433 0.07475  -0.289063531746
 O3 0.576175 0.917703 0.99606  -0.583121031746
 O1 0.601806 0.378103 0.7  -0.612524365079
 O1 0.576666 0.138177 0.81172  -0.612524365079
 O2 0.49219 0.782391 0.78636  -0.289063531746
 O2 0.596464 0.745501 0.86531  -0.289063531746
 O1 0.426207 0.13767 0.77736  -0.612524365079
 O3 0.413745 0.584026 0.9871  -0.583121031746
 O1 0.456878 0.384517 0.81998  -0.612524365079
 O4 0.510914 0.252655 0.94640  -0.826181031746
 O1 0.20846 0.424754 0.42965  -0.612524365079
 O2 0.559339 0.703697 0.42952  -0.289063531746
 O1 0.7769 0.066472 0.43884  -0.612524365079
 O2 0.454209 0.782399 0.42526  -0.289063531746
 O3 0.076155 0.417721 0.50393  -0.583121031746
 O1 0.101825 0.87809 0.72000  -0.612524365079
 O1 0.076776 0.638232 0.6884  -0.612524365079
 O2 0.992166 0.282413 0.71366  -0.289063531746
 O2 0.096471 0.245522 0.6347  -0.289063531746
 O1 0.926182 0.637648 0.72262  -0.612524365079
 O3 0.913713 0.084061 0.51288  -0.583121031746
 O1 0.95687 0.8845 0.68002  -0.612524365079
 O4 0.010972 0.752618 0.55361  -0.826181031746
 O1 0.291474 0.075237 0.92966  -0.612524365079
 O2 0.940629 0.796268 0.92951  -0.289063531746
 O1 0.723028 0.433524 0.93887  -0.612524365079
 O2 0.045782 0.717551 0.92524  -0.289063531746
 O3 0.423771 0.082281 0.  -0.583121031746
 O1 0.398148 0.621877 0.22000  -0.612524365079
 O1 0.423262 0.861788 0.18831  -0.612524365079
 O2 0.507759 0.217589 0.21363  -0.289063531746
 O2 0.40348 0.254474 0.13468  -0.289063531746
 O1 0.573741 0.862312 0.22263  -0.612524365079
 O3 0.586198 0.415964 0.0128  -0.583121031746
 O1 0.543073 0.615459 0.1800  -0.612524365079
 O4 0.48903 0.747333 0.05360  -0.826181031746
