#======================================================================

# CRYSTAL DATA

#----------------------------------------------------------------------

data_VESTA_phase_1


_pd_phase_name                         MOF
_cell_length_a                         15.58300
_cell_length_b                         17.77800
_cell_length_c                         18.30700
_cell_angle_alpha                      112.39900
_cell_angle_beta                       89.99900
_cell_angle_gamma                      89.94600
_symmetry_space_group_name_H-M         "P 1"
_symmetry_Int_Tables_number            1

loop_
_symmetry_equiv_pos_as_xyz
   "x, y, z"

loop_
   _atom_site_label
   _atom_site_fract_x
   _atom_site_fract_y
   _atom_site_fract_z
 _atom_site_charge
 Zn1 0.096259 0.002585 0.16627  1.06672
 Zn1 0.90067 0.0 0.16639  1.06672
 Zn2 0.500681 0.497792 0.16613  1.14720666667
 Zn1 0.403759 0.500913 0.00296  1.06672
 Zn1 0.59612 0.497748 0.33358  1.06672
 Zn1 0.400563 0.499565 0.33311  1.06672
 Zn2 0.000602 0.002324 0.33370  1.14720666667
 Zn1 0.903598 0.998671 0.49695  1.06672
 Zn1 0.903789 0.997422 0.83364  1.06672
 Zn1 0.099339 0.999409 0.83368  1.06672
 Zn2 0.499914 0.502183 0.83374  1.14720666667
 Zn1 0.599749 0.498922 0.99692  1.06672
 Zn1 0.403969 0.502045 0.66649  1.06672
 Zn1 0.59951 0.500811 0.66636  1.06672
 Zn2 0.999847 0.997726 0.66631  1.14720666667
 Zn1 0.09962 0.001608 0.50318  1.06672
 Zn2 0.0 0.999952 1.1e-0  1.14720666667
 Zn2 0.499969 0.50002 0.49993  1.14720666667
 H1 0.994489 0.106829 0.13705  0.495056666667
 H1 0.999112 0.896609 0.1967  0.495056666667
 H1 0.503426 0.393744 0.02754  0.495056666667
 H2 0.893419 0.226941 0.12998  0.104495833333
 H2 0.702626 0.159796 0.94702  0.104495833333
 H2 0.796111 0.335777 0.21817  0.104495833333
 H2 0.605325 0.268775 0.03519  0.104495833333
 H2 0.822287 0.839367 0.85720  0.104495833333
 H2 0.751684 0.790171 0.06165  0.104495833333
 H2 0.74448 0.714376 0.77088  0.104495833333
 H2 0.674586 0.664609 0.97534  0.104495833333
 H2 0.253027 0.713877 0.10563  0.104495833333
 H2 0.374934 0.701898 0.31164  0.104495833333
 H2 0.167764 0.833995 0.19154  0.104495833333
 H2 0.286392 0.819387 0.39760  0.104495833333
 H1 0.49495 0.393433 0.36302  0.495056666667
 H1 0.498456 0.603451 0.30300  0.495056666667
 H1 0.0 0.106361 0.47244  0.495056666667
 H2 0.39296 0.273108 0.36844  0.104495833333
 H2 0.204891 0.338386 0.55384  0.104495833333
 H2 0.295097 0.164761 0.28079  0.104495833333
 H2 0.10697 0.229968 0.4661  0.104495833333
 H2 0.321721 0.660105 0.6427  0.104495833333
 H2 0.252055 0.710013 0.43840  0.104495833333
 H2 0.244055 0.78532 0.72912  0.104495833333
 H2 0.175136 0.835846 0.52483  0.104495833333
 H2 0.753418 0.78622 0.39421  0.104495833333
 H2 0.875521 0.79743 0.18799  0.104495833333
 H2 0.668096 0.666236 0.30857  0.104495833333
 H2 0.786858 0.680128 0.10224  0.104495833333
 H1 0.005248 0.89301 0.86300  0.495056666667
 H1 0.0 0.103344 0.803  0.495056666667
 H1 0.499699 0.606233 0.97262  0.495056666667
 H2 0.106784 0.772966 0.86989  0.104495833333
 H2 0.297344 0.840055 0.05305  0.104495833333
 H2 0.2041 0.664054 0.78183  0.104495833333
 H2 0.394618 0.730932 0.96505  0.104495833333
 H2 0.17805 0.161187 0.14297  0.104495833333
 H2 0.248489 0.208908 0.93769  0.104495833333
 H2 0.255964 0.286402 0.22867  0.104495833333
 H2 0.325705 0.334695 0.02335  0.104495833333
 H2 0.74804 0.285532 0.89348  0.104495833333
 H2 0.625692 0.297604 0.68771  0.104495833333
 H2 0.832894 0.165203 0.80747  0.104495833333
 H2 0.713948 0.179947 0.60159  0.104495833333
 H1 0.504587 0.606676 0.63684  0.495056666667
 H1 0.502358 0.396526 0.6966  0.495056666667
 H1 0.00041 0.893881 0.52737  0.495056666667
 H2 0.607212 0.726881 0.63160  0.104495833333
 H2 0.795169 0.661484 0.44610  0.104495833333
 H2 0.705056 0.835331 0.71909  0.104495833333
 H2 0.89305 0.770054 0.53365  0.104495833333
 H2 0.678485 0.339466 0.35694  0.104495833333
 H2 0.747863 0.290263 0.56171  0.104495833333
 H2 0.756253 0.214161 0.27089  0.104495833333
 H2 0.824895 0.164335 0.47563  0.104495833333
 H2 0.247639 0.214237 0.6065  0.104495833333
 H2 0.125593 0.203026 0.812  0.104495833333
 H2 0.333187 0.333984 0.69214  0.104495833333
 H2 0.214634 0.320016 0.89853  0.104495833333
 C1 0.862156 0.120999 0.9808  0.70369
 C2 0.803959 0.186632 0.03316  -0.121755
 C3 0.830079 0.236265 0.1097  -0.05617
 C3 0.722595 0.19867 0.00641  -0.05617
 C3 0.776079 0.296882 0.15878  -0.05617
 C3 0.668647 0.259364 0.05540  -0.05617
 C2 0.694727 0.308935 0.13204  -0.121755
 C1 0.636458 0.374565 0.18439  0.70369
 C1 0.841954 0.894652 0.01627  0.70369
 C2 0.792661 0.821639 0.96471  -0.121755
 C3 0.79029 0.80069 0.88271  -0.05617
 C3 0.750057 0.772762 0.99792  -0.05617
 C3 0.746588 0.731347 0.83459  -0.05617
 C3 0.706571 0.703309 0.94984  -0.05617
 C2 0.704669 0.682058 0.86778  -0.121755
 C1 0.656998 0.607888 0.81621  0.70369
 C1 0.371162 0.628569 0.15195  0.70369
 C2 0.319364 0.70036 0.20322  -0.121755
 C3 0.260395 0.737575 0.16958  -0.05617
 C3 0.329201 0.730787 0.2856  -0.05617
 C3 0.212249 0.803999 0.21754  -0.05617
 C3 0.279705 0.796065 0.33363  -0.05617
 C2 0.220481 0.833034 0.3000  -0.121755
 C1 0.165023 0.90185 0.3513  0.70369
 C1 0.363385 0.377913 0.51849  0.70369
 C2 0.304914 0.31244 0.46648  -0.121755
 C3 0.330098 0.263497 0.38934  -0.05617
 C3 0.224131 0.300036 0.49400  -0.05617
 C3 0.275796 0.203141 0.34060  -0.05617
 C3 0.169844 0.239626 0.44527  -0.05617
 C2 0.194983 0.190769 0.36808  -0.121755
 C1 0.136448 0.125487 0.31581  0.70369
 C1 0.341775 0.605015 0.48365  0.70369
 C2 0.292562 0.678181 0.53528  -0.121755
 C3 0.289951 0.698979 0.61726  -0.05617
 C3 0.250253 0.727321 0.50214  -0.05617
 C3 0.246361 0.768474 0.66542  -0.05617
 C3 0.206888 0.796932 0.55027  -0.05617
 C2 0.204727 0.818015 0.63229  -0.121755
 C1 0.157056 0.892265 0.68389  0.70369
 C1 0.871448 0.871167 0.34776  0.70369
 C2 0.819846 0.799337 0.29652  -0.121755
 C3 0.760841 0.762336 0.33027  -0.05617
 C3 0.829751 0.768728 0.21413  -0.05617
 C3 0.71263 0.696015 0.28244  -0.05617
 C3 0.780175 0.703562 0.16622  -0.05617
 C2 0.720888 0.666832 0.19994  -0.121755
 C1 0.665244 0.59825 0.1487  0.70369
 C1 0.137901 0.878924 0.01906  0.70369
 C2 0.196124 0.813254 0.96680  -0.121755
 C3 0.17007 0.763607 0.89019  -0.05617
 C3 0.277424 0.801174 0.99364  -0.05617
 C3 0.224078 0.702952 0.84124  -0.05617
 C3 0.331375 0.740421 0.94473  -0.05617
 C2 0.305363 0.690855 0.86807  -0.121755
 C1 0.363613 0.625176 0.81577  0.70369
 C1 0.158096 0.105154 0.98380  0.70369
 C2 0.207546 0.178198 0.03508  -0.121755
 C3 0.21001 0.19961 0.1171  -0.05617
 C3 0.250156 0.226711 0.00146  -0.05617
 C3 0.253791 0.269077 0.16491  -0.05617
 C3 0.293718 0.296278 0.04918  -0.05617
 C2 0.295636 0.318046 0.13130  -0.121755
 C1 0.343337 0.392404 0.18243  0.70369
 C1 0.630552 0.371459 0.84749  0.70369
 C2 0.68164 0.299216 0.79602  -0.121755
 C3 0.740511 0.261817 0.82956  -0.05617
 C3 0.671466 0.268663 0.71366  -0.05617
 C3 0.788415 0.19526 0.78153  -0.05617
 C3 0.720786 0.20326 0.66555  -0.05617
 C2 0.780145 0.166307 0.69904  -0.121755
 C1 0.836028 0.097843 0.64780  0.70369
 C1 0.6367 0.621988 0.48156  0.70369
 C2 0.69519 0.687485 0.53351  -0.121755
 C3 0.670033 0.736496 0.61064  -0.05617
 C3 0.775946 0.699884 0.50593  -0.05617
 C3 0.724337 0.796904 0.65930  -0.05617
 C3 0.830229 0.760359 0.55458  -0.05617
 C2 0.805115 0.809282 0.63175  -0.121755
 C1 0.863632 0.874623 0.68397  0.70369
 C1 0.658189 0.394938 0.51606  0.70369
 C2 0.707472 0.321744 0.46458  -0.121755
 C3 0.710211 0.300722 0.38257  -0.05617
 C3 0.749749 0.272785 0.49795  -0.05617
 C3 0.75386 0.231163 0.33461  -0.05617
 C3 0.793172 0.203119 0.45003  -0.05617
 C2 0.795436 0.181792 0.36798  -0.121755
 C1 0.84317 0.107444 0.31666  0.70369
 C1 0.130127 0.128908 0.65283  0.70369
 C2 0.181361 0.200982 0.70424  -0.121755
 C3 0.240311 0.238043 0.670  -0.05617
 C3 0.171447 0.231635 0.78663  -0.05617
 C3 0.288666 0.304237 0.71831  -0.05617
 C3 0.221255 0.296655 0.83455  -0.05617
 C2 0.280689 0.333257 0.80083  -0.121755
 C1 0.336907 0.401441 0.85184  0.70369
 O1 0.996796 0.048068 0.12229  -1.01092333333
 O1 0.999493 0.955272 0.21051  -1.01092333333
 O1 0.503329 0.452694 0.04341  -1.01092333333
 O2 0.933423 0.108942 0.  -0.6204075
 O2 0.834379 0.081441 0.91002  -0.6204075
 O2 0.566621 0.388281 0.15652  -0.6204075
 O2 0.662831 0.412198 0.25603  -0.6204075
 O2 0.880743 0.937128 0.98505  -0.6204075
 O2 0.840848 0.90862 0.09093  -0.6204075
 O2 0.618855 0.565177 0.84764  -0.6204075
 O2 0.659058 0.592975 0.74143  -0.6204075
 O2 0.436924 0.608738 0.18099  -0.6204075
 O2 0.344107 0.592418 0.08042  -0.6204075
 O2 0.121298 0.940528 0.31927  -0.6204075
 O2 0.166466 0.915943 0.4261  -0.6204075
 O1 0.496922 0.452165 0.37751  -1.01092333333
 O1 0.499108 0.544773 0.28910  -1.01092333333
 O1 0.002698 0.047415 0.45660  -1.01092333333
 O2 0.433721 0.39064 0.49073  -0.6204075
 O2 0.336713 0.416613 0.58984  -0.6204075
 O2 0.066667 0.111844 0.34379  -0.6204075
 O2 0.162629 0.088062 0.24406  -0.6204075
 O2 0.38046 0.562455 0.51492  -0.6204075
 O2 0.340767 0.591057 0.40899  -0.6204075
 O2 0.118889 0.935042 0.65248  -0.6204075
 O2 0.159076 0.907188 0.7586  -0.6204075
 O2 0.936995 0.891272 0.31872  -0.6204075
 O2 0.844376 0.907088 0.41934  -0.6204075
 O2 0.621564 0.559589 0.18081  -0.6204075
 O2 0.666501 0.584364 0.07399  -0.6204075
 O1 0.003005 0.95177 0.87774  -1.01092333333
 O1 0.0 0.044652 0.78951  -1.01092333333
 O1 0.500029 0.547261 0.9565  -1.01092333333
 O2 0.066673 0.890946 0.99215  -0.6204075
 O2 0.165613 0.918538 0.08986  -0.6204075
 O2 0.433385 0.611395 0.84369  -0.6204075
 O2 0.337273 0.587584 0.74410  -0.6204075
 O2 0.119194 0.062949 0.01525  -0.6204075
 O2 0.159182 0.090919 0.90909  -0.6204075
 O2 0.381671 0.43457 0.15049  -0.6204075
 O2 0.341064 0.407946 0.25732  -0.6204075
 O2 0.564235 0.391238 0.81918  -0.6204075
 O2 0.659002 0.407996 0.91852  -0.6204075
 O2 0.880021 0.059467 0.68003  -0.6204075
 O2 0.834939 0.083745 0.57303  -0.6204075
 O1 0.5027 0.547938 0.62231  -1.01092333333
 O1 0.501473 0.455219 0.7106  -1.01092333333
 O1 0.0 0.952859 0.54349  -1.01092333333
 O2 0.566313 0.609367 0.50932  -0.6204075
 O2 0.663386 0.583149 0.4102  -0.6204075
 O2 0.933354 0.888341 0.6559  -0.6204075
 O2 0.837463 0.912013 0.75574  -0.6204075
 O2 0.619366 0.437333 0.48467  -0.6204075
 O2 0.659263 0.409109 0.5907  -0.6204075
 O2 0.881555 0.065083 0.3484  -0.6204075
 O2 0.840947 0.092065 0.24181  -0.6204075
 O2 0.064013 0.108976 0.68122  -0.6204075
 O2 0.15843 0.092611 0.58165  -0.6204075
 O2 0.380213 0.440166 0.81955  -0.6204075
 O2 0.336722 0.415001 0.92650  -0.6204075
