#======================================================================

# CRYSTAL DATA

#----------------------------------------------------------------------

data_VESTA_phase_1


_pd_phase_name                         MOF
_cell_length_a                         18.79600
_cell_length_b                         18.64700
_cell_length_c                         19.47800
_cell_angle_alpha                      90.00100
_cell_angle_beta                       118.72200
_cell_angle_gamma                      90.02000
_symmetry_space_group_name_H-M         "P 1"
_symmetry_Int_Tables_number            1

loop_
_symmetry_equiv_pos_as_xyz
   "x, y, z"

loop_
   _atom_site_label
   _atom_site_fract_x
   _atom_site_fract_y
   _atom_site_fract_z
 _atom_site_charge
 Zn1 0.452801 0.221746 0.06577  0.824691034483
 Zn1 0.452802 0.221746 0.56576  0.824691034483
 Zn1 0.452798 0.721748 0.06577  0.824691034483
 Zn1 0.452798 0.721748 0.56576  0.824691034483
 Zn1 0.952789 0.221748 0.06577  0.824691034483
 Zn1 0.952789 0.221749 0.56576  0.824691034483
 Zn1 0.952785 0.721751 0.0657  0.824691034483
 Zn1 0.952786 0.721751 0.56576  0.824691034483
 Zn1 0.04725 0.471757 0.43422  0.824691034483
 Zn1 0.047252 0.471759 0.93421  0.824691034483
 Zn1 0.047245 0.971759 0.43422  0.824691034483
 Zn1 0.047247 0.971761 0.93421  0.824691034483
 Zn1 0.547238 0.471755 0.43421  0.824691034483
 Zn1 0.547242 0.471758 0.93421  0.824691034483
 Zn1 0.547234 0.971758 0.43421  0.824691034483
 Zn1 0.547237 0.971759 0.93421  0.824691034483
 H1 0.304115 0.255529 0.03031  0.299791034483
 H1 0.304119 0.255525 0.53031  0.299791034483
 H1 0.304114 0.755533 0.03031  0.299791034483
 H1 0.304117 0.755528 0.53031  0.299791034483
 H1 0.804102 0.255529 0.03031  0.299791034483
 H1 0.804107 0.255524 0.53031  0.299791034483
 H1 0.804101 0.755532 0.03031  0.299791034483
 H1 0.804103 0.755529 0.53031  0.299791034483
 H1 0.323757 0.172934 0.06904  0.299791034483
 H1 0.32376 0.172932 0.56904  0.299791034483
 H1 0.323754 0.672937 0.06904  0.299791034483
 H1 0.323757 0.672935 0.56904  0.299791034483
 H1 0.823745 0.172933 0.06904  0.299791034483
 H1 0.823748 0.17293 0.56904  0.299791034483
 H1 0.823741 0.672936 0.06904  0.299791034483
 H1 0.823744 0.672933 0.56904  0.299791034483
 H2 0.013852 0.380317 0.05436  0.0926949233716
 H2 0.013854 0.380315 0.55436  0.0926949233716
 H2 0.013847 0.880319 0.05436  0.0926949233716
 H2 0.01385 0.880316 0.55436  0.0926949233716
 H2 0.513842 0.380316 0.05436  0.0926949233716
 H2 0.513845 0.380314 0.55436  0.0926949233716
 H2 0.513838 0.880318 0.05436  0.0926949233716
 H2 0.513841 0.880315 0.55436  0.0926949233716
 H2 0.408427 0.286836 0.26300  0.0926949233716
 H2 0.408433 0.286834 0.76300  0.0926949233716
 H2 0.408423 0.786837 0.26300  0.0926949233716
 H2 0.408429 0.786836 0.76  0.0926949233716
 H2 0.908418 0.286839 0.26300  0.0926949233716
 H2 0.908423 0.286837 0.76  0.0926949233716
 H2 0.908414 0.786841 0.26300  0.0926949233716
 H2 0.908419 0.786839 0.76299  0.0926949233716
 H2 0.429055 0.380581 0.2725  0.0926949233716
 H2 0.429059 0.380578 0.77250  0.0926949233716
 H2 0.42905 0.880583 0.27250  0.0926949233716
 H2 0.429054 0.880581 0.77250  0.0926949233716
 H2 0.929044 0.380585 0.2725  0.0926949233716
 H2 0.929045 0.380583 0.77250  0.0926949233716
 H2 0.929038 0.880587 0.27250  0.0926949233716
 H2 0.929039 0.880585 0.77250  0.0926949233716
 H1 0.04454 0.203316 0.32210  0.299791034483
 H1 0.044545 0.20332 0.82210  0.299791034483
 H1 0.044537 0.703321 0.32210  0.299791034483
 H1 0.044542 0.703324 0.82210  0.299791034483
 H1 0.544529 0.203311 0.3221  0.299791034483
 H1 0.544535 0.203313 0.82210  0.299791034483
 H1 0.544526 0.703315 0.32210  0.299791034483
 H1 0.544531 0.703317 0.82210  0.299791034483
 H2 0.409894 0.218618 0.38386  0.0926949233716
 H2 0.409892 0.218611 0.8838  0.0926949233716
 H2 0.409888 0.718619 0.38386  0.0926949233716
 H2 0.409889 0.718613 0.88385  0.0926949233716
 H2 0.909885 0.218619 0.38386  0.0926949233716
 H2 0.909883 0.218613 0.88385  0.0926949233716
 H2 0.909881 0.71862 0.38386  0.0926949233716
 H2 0.909879 0.718614 0.88385  0.0926949233716
 H2 0.072665 0.361231 0.3191  0.0926949233716
 H2 0.072664 0.361228 0.81912  0.0926949233716
 H2 0.072659 0.861236 0.31912  0.0926949233716
 H2 0.072658 0.861233 0.8191  0.0926949233716
 H2 0.57265 0.361226 0.31912  0.0926949233716
 H2 0.572649 0.36122 0.81911  0.0926949233716
 H2 0.572643 0.861229 0.31912  0.0926949233716
 H2 0.572645 0.861225 0.81911  0.0926949233716
 H2 0.157327 0.13789 0.37689  0.0926949233716
 H2 0.157328 0.13789 0.87688  0.0926949233716
 H2 0.157323 0.637895 0.37689  0.0926949233716
 H2 0.157324 0.637895 0.87688  0.0926949233716
 H2 0.657321 0.137889 0.37688  0.0926949233716
 H2 0.65732 0.137888 0.8768  0.0926949233716
 H2 0.657316 0.637893 0.37688  0.0926949233716
 H2 0.657316 0.637892 0.87688  0.0926949233716
 H2 0.177614 0.161293 0.47185  0.0926949233716
 H2 0.177613 0.161291 0.97184  0.0926949233716
 H2 0.17761 0.661299 0.47185  0.0926949233716
 H2 0.17761 0.661298 0.97184  0.0926949233716
 H2 0.677604 0.161286 0.47184  0.0926949233716
 H2 0.677603 0.161284 0.97183  0.0926949233716
 H2 0.6776 0.661292 0.47184  0.0926949233716
 H2 0.6776 0.661289 0.97183  0.0926949233716
 H2 0.293502 0.205334 0.40988  0.0926949233716
 H2 0.293503 0.205333 0.90988  0.0926949233716
 H2 0.293499 0.70534 0.40988  0.0926949233716
 H2 0.293499 0.705339 0.90988  0.0926949233716
 H2 0.793494 0.205339 0.40988  0.0926949233716
 H2 0.793492 0.205335 0.90988  0.0926949233716
 H2 0.793488 0.705344 0.40988  0.0926949233716
 H2 0.793489 0.705339 0.90988  0.0926949233716
 H2 0.300564 0.119943 0.45367  0.0926949233716
 H2 0.300565 0.11994 0.95366  0.0926949233716
 H2 0.30056 0.619948 0.45367  0.0926949233716
 H2 0.30056 0.619945 0.95366  0.0926949233716
 H2 0.800558 0.119945 0.4536  0.0926949233716
 H2 0.800558 0.11994 0.95366  0.0926949233716
 H2 0.800553 0.619949 0.45366  0.0926949233716
 H2 0.800553 0.619944 0.95366  0.0926949233716
 H1 0.196077 0.005653 0.47010  0.299791034483
 H1 0.196075 0.005648 0.97009  0.299791034483
 H1 0.196074 0.505653 0.47010  0.299791034483
 H1 0.196074 0.50565 0.97009  0.299791034483
 H1 0.696065 0.005653 0.47010  0.299791034483
 H1 0.696065 0.005649 0.97009  0.299791034483
 H1 0.696062 0.505654 0.47010  0.299791034483
 H1 0.696063 0.505649 0.97009  0.299791034483
 H1 0.176413 0.42314 0.43111  0.299791034483
 H1 0.176414 0.423137 0.93110  0.299791034483
 H1 0.17641 0.923142 0.43111  0.299791034483
 H1 0.176409 0.923138 0.93110  0.299791034483
 H1 0.676402 0.423141 0.43110  0.299791034483
 H1 0.676403 0.423137 0.93110  0.299791034483
 H1 0.676398 0.923143 0.43110  0.299791034483
 H1 0.676399 0.92314 0.93110  0.299791034483
 H2 0.486113 0.130302 0.44557  0.0926949233716
 H2 0.486114 0.130299 0.94556  0.0926949233716
 H2 0.48611 0.630303 0.44557  0.0926949233716
 H2 0.486112 0.630301 0.94556  0.0926949233716
 H2 0.986104 0.130303 0.44557  0.0926949233716
 H2 0.986104 0.1303 0.9455  0.0926949233716
 H2 0.986101 0.630304 0.44557  0.0926949233716
 H2 0.986102 0.630302 0.94557  0.0926949233716
 H2 0.091656 0.036918 0.23695  0.0926949233716
 H2 0.091655 0.036917 0.73694  0.0926949233716
 H2 0.091653 0.536922 0.23695  0.0926949233716
 H2 0.091652 0.53692 0.73694  0.0926949233716
 H2 0.591648 0.036915 0.23694  0.0926949233716
 H2 0.591649 0.036913 0.73694  0.0926949233716
 H2 0.591645 0.536918 0.23694  0.0926949233716
 H2 0.591646 0.536916 0.73694  0.0926949233716
 H2 0.071013 0.130646 0.22746  0.0926949233716
 H2 0.071014 0.130645 0.7274  0.0926949233716
 H2 0.071009 0.630649 0.22746  0.0926949233716
 H2 0.07101 0.630648 0.72745  0.0926949233716
 H2 0.571003 0.130642 0.22746  0.0926949233716
 H2 0.571005 0.130641 0.72745  0.0926949233716
 H2 0.570999 0.630645 0.22746  0.0926949233716
 H2 0.571001 0.630644 0.72745  0.0926949233716
 H1 0.4555 0.453277 0.17790  0.299791034483
 H1 0.4555 0.453278 0.67790  0.299791034483
 H1 0.455496 0.953279 0.17790  0.299791034483
 H1 0.455496 0.953281 0.67790  0.299791034483
 H1 0.955489 0.453283 0.17791  0.299791034483
 H1 0.955487 0.453286 0.67790  0.299791034483
 H1 0.955484 0.953285 0.1779  0.299791034483
 H1 0.955483 0.953288 0.67790  0.299791034483
 H2 0.090076 0.468679 0.11606  0.0926949233716
 H2 0.090079 0.468676 0.61606  0.0926949233716
 H2 0.090071 0.96868 0.11606  0.0926949233716
 H2 0.090075 0.968676 0.61606  0.0926949233716
 H2 0.590069 0.468679 0.11606  0.0926949233716
 H2 0.590071 0.468676 0.6160  0.0926949233716
 H2 0.590063 0.968681 0.11606  0.0926949233716
 H2 0.590068 0.968677 0.6160  0.0926949233716
 H2 0.42744 0.111176 0.18093  0.0926949233716
 H2 0.427445 0.111173 0.68093  0.0926949233716
 H2 0.427436 0.611177 0.18093  0.0926949233716
 H2 0.427439 0.611174 0.68093  0.0926949233716
 H2 0.927422 0.111181 0.18093  0.0926949233716
 H2 0.927426 0.111179 0.68093  0.0926949233716
 H2 0.927418 0.611182 0.18093  0.0926949233716
 H2 0.927421 0.61118 0.68092  0.0926949233716
 H2 0.342472 0.387873 0.1234  0.0926949233716
 H2 0.342475 0.387872 0.62347  0.0926949233716
 H2 0.342465 0.887876 0.12348  0.0926949233716
 H2 0.34247 0.887875 0.62347  0.0926949233716
 H2 0.842464 0.387874 0.12347  0.0926949233716
 H2 0.842467 0.387875 0.62347  0.0926949233716
 H2 0.842459 0.887877 0.12347  0.0926949233716
 H2 0.842462 0.887877 0.62347  0.0926949233716
 H2 0.322392 0.410984 0.0285  0.0926949233716
 H2 0.322395 0.410983 0.52850  0.0926949233716
 H2 0.322386 0.910987 0.02851  0.0926949233716
 H2 0.322391 0.910985 0.52850  0.0926949233716
 H2 0.822383 0.410988 0.02850  0.0926949233716
 H2 0.822386 0.410987 0.52850  0.0926949233716
 H2 0.822378 0.91099 0.02850  0.0926949233716
 H2 0.822382 0.91099 0.52850  0.0926949233716
 H2 0.206377 0.455224 0.09024  0.0926949233716
 H2 0.20638 0.455223 0.59024  0.0926949233716
 H2 0.20637 0.955228 0.09024  0.0926949233716
 H2 0.206375 0.955226 0.59024  0.0926949233716
 H2 0.706366 0.455219 0.09024  0.0926949233716
 H2 0.70637 0.455219 0.59024  0.0926949233716
 H2 0.706361 0.955222 0.09024  0.0926949233716
 H2 0.706365 0.955221 0.59024  0.0926949233716
 H2 0.199206 0.3699 0.04628  0.0926949233716
 H2 0.199208 0.369897 0.54627  0.0926949233716
 H2 0.199199 0.869903 0.04628  0.0926949233716
 H2 0.199204 0.8699 0.5462  0.0926949233716
 H2 0.699198 0.369896 0.04627  0.0926949233716
 H2 0.699201 0.369895 0.54627  0.0926949233716
 H2 0.699193 0.869899 0.04627  0.0926949233716
 H2 0.699197 0.869896 0.54627  0.0926949233716
 C1 0.494095 0.351528 0.49987  0.283631034483
 C1 0.494093 0.351525 0.99987  0.283631034483
 C1 0.49409 0.851529 0.49987  0.283631034483
 C1 0.494089 0.851527 0.9998  0.283631034483
 C1 0.99408 0.35153 0.49987  0.283631034483
 C1 0.994079 0.351527 0.9998  0.283631034483
 C1 0.994075 0.851531 0.49987  0.283631034483
 C1 0.994073 0.851529 0.99986  0.283631034483
 C2 0.452918 0.327928 0.29889  -0.297683965517
 C2 0.452915 0.327927 0.79889  -0.297683965517
 C2 0.452912 0.82793 0.2988  -0.297683965517
 C2 0.452911 0.82793 0.7988  -0.297683965517
 C2 0.952908 0.327931 0.2988  -0.297683965517
 C2 0.952905 0.327931 0.79889  -0.297683965517
 C2 0.952903 0.827934 0.29888  -0.297683965517
 C2 0.9529 0.827934 0.79888  -0.297683965517
 C3 0.439356 0.2686 0.41117  -0.0621489655172
 C3 0.439353 0.268594 0.91116  -0.0621489655172
 C3 0.43935 0.768601 0.4111  -0.0621489655172
 C3 0.43935 0.768595 0.91116  -0.0621489655172
 C3 0.939344 0.268602 0.4111  -0.0621489655172
 C3 0.939342 0.268596 0.91116  -0.0621489655172
 C3 0.93934 0.768604 0.41116  -0.0621489655172
 C3 0.939337 0.768597 0.91116  -0.0621489655172
 C4 0.032161 0.31509 0.29404  0.0409510344828
 C4 0.032151 0.315092 0.79403  0.0409510344828
 C4 0.032157 0.815095 0.29403  0.0409510344828
 C4 0.032146 0.815096 0.7940  0.0409510344828
 C4 0.532145 0.315084 0.2940  0.0409510344828
 C4 0.532133 0.315085 0.7940  0.0409510344828
 C4 0.532137 0.815089 0.29403  0.0409510344828
 C4 0.532132 0.815089 0.7940  0.0409510344828
 C5 0.008165 0.309949 0.20649  0.637121034483
 C5 0.008162 0.309953 0.7064  0.637121034483
 C5 0.008159 0.809953 0.20649  0.637121034483
 C5 0.008159 0.809958 0.70648  0.637121034483
 C5 0.508141 0.309937 0.20649  0.637121034483
 C5 0.508141 0.309939 0.70648  0.637121034483
 C5 0.50814 0.809941 0.20649  0.637121034483
 C5 0.508136 0.809943 0.70648  0.637121034483
 C6 0.153112 0.251783 0.39448  0.567036034483
 C6 0.153114 0.25178 0.89447  0.567036034483
 C6 0.153108 0.751788 0.39448  0.567036034483
 C6 0.15311 0.751785 0.89447  0.567036034483
 C6 0.6531 0.25178 0.39448  0.567036034483
 C6 0.653101 0.251775 0.89447  0.567036034483
 C6 0.653096 0.751783 0.3944  0.567036034483
 C6 0.653097 0.75178 0.89447  0.567036034483
 C7 0.462504 0.323828 0.37931  0.155741034483
 C7 0.462511 0.323823 0.87932  0.155741034483
 C7 0.462501 0.823829 0.3793  0.155741034483
 C7 0.462506 0.823825 0.87932  0.155741034483
 C7 0.962492 0.32383 0.37931  0.155741034483
 C7 0.962497 0.323826 0.87932  0.155741034483
 C7 0.962487 0.823832 0.37931  0.155741034483
 C7 0.962493 0.823827 0.87931  0.155741034483
 C2 0.189108 0.177455 0.42360  -0.297683965517
 C2 0.189111 0.177453 0.92360  -0.297683965517
 C2 0.189103 0.67746 0.42360  -0.297683965517
 C2 0.189107 0.677459 0.92360  -0.297683965517
 C2 0.689099 0.177453 0.42360  -0.297683965517
 C2 0.689103 0.17745 0.92360  -0.297683965517
 C2 0.689095 0.677457 0.42360  -0.297683965517
 C2 0.689098 0.677454 0.92360  -0.297683965517
 C8 0.28021 0.175483 0.45101  0.146951034483
 C8 0.280214 0.17548 0.95101  0.146951034483
 C8 0.280206 0.675489 0.45101  0.146951034483
 C8 0.280211 0.675485 0.9510  0.146951034483
 C8 0.780201 0.175485 0.45101  0.146951034483
 C8 0.780206 0.17548 0.95101  0.146951034483
 C8 0.780198 0.675489 0.45101  0.146951034483
 C8 0.780202 0.675484 0.9510  0.146951034483
 C1 0.005886 0.101536 6.7e-0  0.283631034483
 C1 0.005891 0.101534 0.50006  0.283631034483
 C1 0.005884 0.601538 6.8e-0  0.283631034483
 C1 0.005888 0.601535 0.50006  0.283631034483
 C1 0.505873 0.101535 6.4e-0  0.283631034483
 C1 0.505878 0.101533 0.50006  0.283631034483
 C1 0.505871 0.601537 6.5e-0  0.283631034483
 C1 0.505874 0.601534 0.50006  0.283631034483
 C2 0.047152 0.077974 0.20108  -0.297683965517
 C2 0.047157 0.077974 0.70107  -0.297683965517
 C2 0.047148 0.577977 0.20108  -0.297683965517
 C2 0.047153 0.577977 0.70107  -0.297683965517
 C2 0.547141 0.07797 0.20108  -0.297683965517
 C2 0.547148 0.077969 0.70107  -0.297683965517
 C2 0.547139 0.577972 0.20108  -0.297683965517
 C2 0.547143 0.577972 0.70107  -0.297683965517
 C3 0.060631 0.018644 0.08877  -0.0621489655172
 C3 0.060637 0.01864 0.58876  -0.0621489655172
 C3 0.060629 0.518647 0.08877  -0.0621489655172
 C3 0.060633 0.518643 0.58876  -0.0621489655172
 C3 0.560622 0.018645 0.08876  -0.0621489655172
 C3 0.560627 0.01864 0.58876  -0.0621489655172
 C3 0.56062 0.518646 0.08876  -0.0621489655172
 C3 0.560623 0.518643 0.58876  -0.0621489655172
 C4 0.467947 0.065061 0.20598  0.0409510344828
 C4 0.467959 0.065061 0.70598  0.0409510344828
 C4 0.467945 0.565063 0.20598  0.0409510344828
 C4 0.467953 0.565063 0.70598  0.0409510344828
 C4 0.967932 0.065068 0.20598  0.0409510344828
 C4 0.967942 0.065069 0.70598  0.0409510344828
 C4 0.967929 0.565069 0.20598  0.0409510344828
 C4 0.967937 0.565071 0.70598  0.0409510344828
 C5 0.491968 0.059895 0.29352  0.637121034483
 C5 0.491969 0.059897 0.79352  0.637121034483
 C5 0.491962 0.559898 0.29352  0.637121034483
 C5 0.491968 0.559899 0.79352  0.637121034483
 C5 0.991951 0.059906 0.29352  0.637121034483
 C5 0.991955 0.059909 0.79352  0.637121034483
 C5 0.99195 0.559908 0.2935  0.637121034483
 C5 0.991954 0.559911 0.79352  0.637121034483
 C6 0.346903 0.001687 0.10566  0.567036034483
 C6 0.346905 0.001684 0.60566  0.567036034483
 C6 0.346901 0.501687 0.10566  0.567036034483
 C6 0.346903 0.501685 0.6056  0.567036034483
 C6 0.846891 0.001688 0.10566  0.567036034483
 C6 0.846893 0.001686 0.6056  0.567036034483
 C6 0.846889 0.501689 0.10566  0.567036034483
 C6 0.84689 0.501688 0.60565  0.567036034483
 C7 0.037512 0.073866 0.12063  0.155741034483
 C7 0.037511 0.073863 0.62062  0.155741034483
 C7 0.03751 0.573869 0.12063  0.155741034483
 C7 0.037508 0.573866 0.62062  0.155741034483
 C7 0.537502 0.073865 0.12063  0.155741034483
 C7 0.537501 0.073861 0.62062  0.155741034483
 C7 0.537499 0.573866 0.12063  0.155741034483
 C7 0.537498 0.573864 0.62062  0.155741034483
 C2 0.310811 0.427337 0.07664  -0.297683965517
 C2 0.310812 0.427335 0.57663  -0.297683965517
 C2 0.310806 0.92734 0.07664  -0.297683965517
 C2 0.310807 0.927338 0.5766  -0.297683965517
 C2 0.810802 0.427339 0.07664  -0.297683965517
 C2 0.810802 0.427338 0.57663  -0.297683965517
 C2 0.810796 0.927341 0.07664  -0.297683965517
 C2 0.810797 0.92734 0.57663  -0.297683965517
 C8 0.219682 0.425432 0.04909  0.146951034483
 C8 0.219683 0.42543 0.54909  0.146951034483
 C8 0.219677 0.925436 0.04910  0.146951034483
 C8 0.219678 0.925433 0.54909  0.146951034483
 C8 0.719674 0.42543 0.04909  0.146951034483
 C8 0.719673 0.425428 0.54909  0.146951034483
 C8 0.719668 0.925432 0.04909  0.146951034483
 C8 0.719668 0.92543 0.54909  0.146951034483
 N1 0.329812 0.206817 0.03028  -0.641238965517
 N1 0.329814 0.206812 0.53027  -0.641238965517
 N1 0.329809 0.706821 0.03028  -0.641238965517
 N1 0.329811 0.706815 0.53027  -0.641238965517
 N1 0.829801 0.206817 0.03028  -0.641238965517
 N1 0.829802 0.206812 0.53027  -0.641238965517
 N1 0.829798 0.70682 0.03028  -0.641238965517
 N1 0.829799 0.706816 0.53027  -0.641238965517
 N2 0.497613 0.376654 0.43643  -0.453128965517
 N2 0.497616 0.376658 0.93643  -0.453128965517
 N2 0.497609 0.876658 0.43643  -0.453128965517
 N2 0.497611 0.876659 0.9364  -0.453128965517
 N2 0.997599 0.376656 0.43643  -0.453128965517
 N2 0.997601 0.376659 0.93643  -0.453128965517
 N2 0.997594 0.876658 0.43643  -0.453128965517
 N2 0.997596 0.876661 0.93642  -0.453128965517
 N3 0.075406 0.251652 0.33662  -0.373618965517
 N3 0.075408 0.251657 0.83661  -0.373618965517
 N3 0.075402 0.751656 0.33662  -0.373618965517
 N3 0.075404 0.751662 0.83661  -0.373618965517
 N3 0.575392 0.251647 0.33662  -0.373618965517
 N3 0.575394 0.251652 0.83661  -0.373618965517
 N3 0.575388 0.751653 0.33662  -0.373618965517
 N3 0.57539 0.751655 0.83661  -0.373618965517
 N2 0.459447 0.286125 0.48746  -0.453128965517
 N2 0.459448 0.286121 0.98745  -0.453128965517
 N2 0.459443 0.786126 0.48746  -0.453128965517
 N2 0.459445 0.786122 0.98745  -0.453128965517
 N2 0.959435 0.286125 0.48746  -0.453128965517
 N2 0.959436 0.286122 0.98745  -0.453128965517
 N2 0.959431 0.786127 0.48746  -0.453128965517
 N2 0.959432 0.786123 0.98745  -0.453128965517
 N1 0.17027 0.456914 0.46990  -0.641238965517
 N1 0.170272 0.45691 0.96989  -0.641238965517
 N1 0.170265 0.956917 0.46990  -0.641238965517
 N1 0.170267 0.956911 0.96989  -0.641238965517
 N1 0.670259 0.456914 0.469  -0.641238965517
 N1 0.670262 0.456908 0.96989  -0.641238965517
 N1 0.670255 0.956916 0.469  -0.641238965517
 N1 0.670257 0.956911 0.96989  -0.641238965517
 N2 0.002402 0.126672 0.06352  -0.453128965517
 N2 0.002404 0.126673 0.56352  -0.453128965517
 N2 0.002399 0.626674 0.06352  -0.453128965517
 N2 0.002401 0.626675 0.56352  -0.453128965517
 N2 0.502389 0.126669 0.06352  -0.453128965517
 N2 0.502391 0.12667 0.56351  -0.453128965517
 N2 0.502386 0.626671 0.06352  -0.453128965517
 N2 0.502387 0.626671 0.56351  -0.453128965517
 N3 0.424662 0.001603 0.16339  -0.373618965517
 N3 0.424665 0.001606 0.66339  -0.373618965517
 N3 0.42466 0.501605 0.163  -0.373618965517
 N3 0.424662 0.501606 0.66339  -0.373618965517
 N3 0.924648 0.001609 0.16340  -0.373618965517
 N3 0.92465 0.001613 0.66340  -0.373618965517
 N3 0.924646 0.501609 0.16340  -0.373618965517
 N3 0.924646 0.501614 0.66340  -0.373618965517
 N2 0.040515 0.036151 0.01247  -0.453128965517
 N2 0.040518 0.036147 0.51246  -0.453128965517
 N2 0.040513 0.536153 0.01247  -0.453128965517
 N2 0.040515 0.536149 0.5124  -0.453128965517
 N2 0.540503 0.03615 0.0124  -0.453128965517
 N2 0.540505 0.036147 0.51246  -0.453128965517
 N2 0.540501 0.536152 0.01247  -0.453128965517
 N2 0.540503 0.536149 0.51246  -0.453128965517
 O1 0.997014 0.245611 0.17859  -0.602878965517
 O1 0.997021 0.245615 0.67859  -0.602878965517
 O1 0.997012 0.745616 0.17859  -0.602878965517
 O1 0.997018 0.745619 0.67859  -0.602878965517
 O1 0.497002 0.245597 0.17860  -0.602878965517
 O1 0.497008 0.245598 0.67859  -0.602878965517
 O1 0.496999 0.745601 0.17860  -0.602878965517
 O1 0.497005 0.745603 0.67859  -0.602878965517
 O2 0.497315 0.366376 0.16805  -0.604118965517
 O2 0.497327 0.366379 0.66805  -0.604118965517
 O2 0.497313 0.866381 0.16805  -0.604118965517
 O2 0.497323 0.866384 0.66805  -0.604118965517
 O2 0.997315 0.366391 0.16806  -0.604118965517
 O2 0.997325 0.366396 0.66806  -0.604118965517
 O2 0.997311 0.866396 0.16806  -0.604118965517
 O2 0.997323 0.866401 0.66806  -0.604118965517
 O2 0.195173 0.307121 0.42224  -0.604118965517
 O2 0.195172 0.307118 0.92224  -0.604118965517
 O2 0.195169 0.807126 0.42224  -0.604118965517
 O2 0.195167 0.807123 0.92224  -0.604118965517
 O2 0.69516 0.307119 0.42224  -0.604118965517
 O2 0.695158 0.307114 0.92224  -0.604118965517
 O2 0.695153 0.807123 0.42224  -0.604118965517
 O2 0.695155 0.807118 0.92224  -0.604118965517
 O1 0.503148 0.495557 0.32140  -0.602878965517
 O1 0.503148 0.495558 0.82139  -0.602878965517
 O1 0.503144 0.995557 0.32140  -0.602878965517
 O1 0.503143 0.995559 0.82139  -0.602878965517
 O1 0.0 0.495569 0.32140  -0.602878965517
 O1 0.0 0.495572 0.82140  -0.602878965517
 O1 0.0 0.99557 0.32140  -0.602878965517
 O1 0.0 0.995573 0.82140  -0.602878965517
 O2 0.002762 0.116341 0.33197  -0.604118965517
 O2 0.002756 0.116345 0.83196  -0.604118965517
 O2 0.002759 0.616344 0.33197  -0.604118965517
 O2 0.002754 0.616348 0.83196  -0.604118965517
 O2 0.502762 0.116328 0.33198  -0.604118965517
 O2 0.502757 0.116331 0.83197  -0.604118965517
 O2 0.502757 0.616332 0.3319  -0.604118965517
 O2 0.502755 0.616333 0.83197  -0.604118965517
 O2 0.304873 0.057017 0.07791  -0.604118965517
 O2 0.304879 0.057014 0.57790  -0.604118965517
 O2 0.304873 0.557017 0.07790  -0.604118965517
 O2 0.304876 0.557015 0.57790  -0.604118965517
 O2 0.80486 0.057017 0.07790  -0.604118965517
 O2 0.804864 0.057014 0.57789  -0.604118965517
 O2 0.804857 0.557017 0.07790  -0.604118965517
 O2 0.804861 0.557016 0.57789  -0.604118965517
