#======================================================================

# CRYSTAL DATA

#----------------------------------------------------------------------

data_VESTA_phase_1


_pd_phase_name                         MOF
_cell_length_a                         18.46300
_cell_length_b                         21.01500
_cell_length_c                         15.66800
_cell_angle_alpha                      94.02900
_cell_angle_beta                       89.95800
_cell_angle_gamma                      89.91000
_symmetry_space_group_name_H-M         "P 1"
_symmetry_Int_Tables_number            1

loop_
_symmetry_equiv_pos_as_xyz
   "x, y, z"

loop_
   _atom_site_label
   _atom_site_fract_x
   _atom_site_fract_y
   _atom_site_fract_z
 _atom_site_charge
 Zn1 0.131184 0.035909 0.2964  0.822441637931
 Zn1 0.131193 0.535685 0.29644  0.822441637931
 Zn1 0.631197 0.035909 0.2964  0.822441637931
 Zn1 0.631206 0.535685 0.29644  0.822441637931
 Zn1 0.378303 0.185852 0.18184  0.822441637931
 Zn1 0.378324 0.6859 0.18199  0.822441637931
 Zn1 0.878316 0.185852 0.18184  0.822441637931
 Zn1 0.878337 0.6859 0.18199  0.822441637931
 Zn1 0.381158 0.466107 0.70646  0.822441637931
 Zn1 0.381241 0.966089 0.70659  0.822441637931
 Zn1 0.881171 0.466107 0.70646  0.822441637931
 Zn1 0.881254 0.966089 0.70659  0.822441637931
 Zn1 0.128325 0.314425 0.81839  0.822441637931
 Zn1 0.12853 0.814231 0.81839  0.822441637931
 Zn1 0.628338 0.314425 0.81839  0.822441637931
 Zn1 0.628543 0.814231 0.81839  0.822441637931
 H1 0.060806 0.20682 0.77494  0.314539137931
 H1 0.061041 0.706897 0.77342  0.314539137931
 H1 0.560818 0.20682 0.77494  0.314539137931
 H1 0.561053 0.706897 0.77342  0.314539137931
 H1 0.06974 0.249619 0.69202  0.314539137931
 H1 0.070663 0.750215 0.69117  0.314539137931
 H1 0.569752 0.249619 0.69202  0.314539137931
 H1 0.570675 0.750215 0.69117  0.314539137931
 H2 0.289796 0.09018 0.28483  0.0983027490421
 H2 0.289978 0.589995 0.28516  0.0983027490421
 H2 0.789809 0.09018 0.28483  0.0983027490421
 H2 0.78999 0.589995 0.28516  0.0983027490421
 H2 0.122435 0.090552 0.1025  0.0983027490421
 H2 0.122369 0.590701 0.10325  0.0983027490421
 H2 0.622448 0.090552 0.1025  0.0983027490421
 H2 0.622381 0.590701 0.10325  0.0983027490421
 H2 0.278806 0.265185 0.06792  0.0983027490421
 H2 0.277896 0.765908 0.06987  0.0983027490421
 H2 0.778818 0.265185 0.06792  0.0983027490421
 H2 0.777908 0.765908 0.06987  0.0983027490421
 H2 0.187427 0.155985 0.98508  0.0983027490421
 H2 0.18695 0.656717 0.98621  0.0983027490421
 H2 0.68744 0.155985 0.98508  0.0983027490421
 H2 0.686962 0.656717 0.98621  0.0983027490421
 H2 0.283398 0.162549 0.99113  0.0983027490421
 H2 0.282906 0.663512 0.99215  0.0983027490421
 H2 0.78341 0.162549 0.99113  0.0983027490421
 H2 0.782919 0.663512 0.99215  0.0983027490421
 H2 0.113147 0.283928 0.26737  0.0983027490421
 H2 0.110261 0.784381 0.26818  0.0983027490421
 H2 0.613159 0.283928 0.26737  0.0983027490421
 H2 0.610273 0.784381 0.26818  0.0983027490421
 H2 0.065956 0.322844 0.18975  0.0983027490421
 H2 0.064312 0.82352 0.18970  0.0983027490421
 H2 0.565969 0.322844 0.18975  0.0983027490421
 H2 0.564324 0.82352 0.18970  0.0983027490421
 H1 0.079896 0.442749 0.19360  0.314539137931
 H1 0.080142 0.943357 0.19303  0.314539137931
 H1 0.579909 0.442749 0.19360  0.314539137931
 H1 0.580155 0.943357 0.19303  0.314539137931
 H1 0.16887 0.440872 0.19199  0.314539137931
 H1 0.169093 0.940485 0.19330  0.314539137931
 H1 0.668882 0.440872 0.19199  0.314539137931
 H1 0.669106 0.940485 0.19330  0.314539137931
 H2 0.081586 0.38977 0.32963  0.0983027490421
 H2 0.079039 0.890759 0.32953  0.0983027490421
 H2 0.581598 0.389769 0.32963  0.0983027490421
 H2 0.579051 0.890759 0.32953  0.0983027490421
 H2 0.176918 0.386276 0.31652  0.0983027490421
 H2 0.174396 0.886196 0.3181  0.0983027490421
 H2 0.676931 0.386276 0.31652  0.0983027490421
 H2 0.674408 0.886196 0.31819  0.0983027490421
 H2 0.129884 0.359373 0.62690  0.0983027490421
 H2 0.130117 0.85918 0.62691  0.0983027490421
 H2 0.629896 0.359373 0.62690  0.0983027490421
 H2 0.63013 0.85918 0.62691  0.0983027490421
 H1 0.118628 0.247771 0.09132  0.314539137931
 H1 0.117579 0.748298 0.09180  0.314539137931
 H1 0.618641 0.247771 0.09132  0.314539137931
 H1 0.617591 0.748298 0.09180  0.314539137931
 H2 0.294287 0.02487 0.54977  0.0983027490421
 H2 0.294565 0.524605 0.54947  0.0983027490421
 H2 0.7943 0.02487 0.54977  0.0983027490421
 H2 0.794578 0.524605 0.54947  0.0983027490421
 H1 0.136713 0.018266 0.59271  0.314539137931
 H1 0.13712 0.518386 0.59294  0.314539137931
 H1 0.636726 0.018266 0.59271  0.314539137931
 H1 0.637133 0.518386 0.59294  0.314539137931
 H2 0.183602 0.17092 0.76314  0.0983027490421
 H2 0.183711 0.6704 0.76177  0.0983027490421
 H2 0.683615 0.17092 0.76314  0.0983027490421
 H2 0.683723 0.670401 0.76177  0.0983027490421
 H2 0.197292 0.219132 0.6766  0.0983027490421
 H2 0.198006 0.719215 0.67593  0.0983027490421
 H2 0.697305 0.219132 0.6766  0.0983027490421
 H2 0.698019 0.719215 0.67593  0.0983027490421
 H2 0.284037 0.386503 0.82345  0.0983027490421
 H2 0.284037 0.886699 0.82365  0.0983027490421
 H2 0.78405 0.386503 0.82345  0.0983027490421
 H2 0.78405 0.886699 0.82365  0.0983027490421
 H2 0.094324 0.103702 0.67627  0.0983027490421
 H2 0.094053 0.604399 0.67385  0.0983027490421
 H2 0.594337 0.103702 0.67627  0.0983027490421
 H2 0.594066 0.604399 0.67385  0.0983027490421
 H2 0.097045 0.158374 0.59533  0.0983027490421
 H2 0.09777 0.65955 0.59348  0.0983027490421
 H2 0.597057 0.158374 0.59533  0.0983027490421
 H2 0.597782 0.65955 0.59348  0.0983027490421
 H2 0.195989 0.410599 0.50500  0.0983027490421
 H2 0.196202 0.910531 0.50505  0.0983027490421
 H2 0.696002 0.410599 0.50500  0.0983027490421
 H2 0.696215 0.910531 0.50505  0.0983027490421
 H2 0.291703 0.413776 0.51246  0.0983027490421
 H2 0.291894 0.91398 0.51264  0.0983027490421
 H2 0.791716 0.413776 0.51246  0.0983027490421
 H2 0.791906 0.91398 0.51264  0.0983027490421
 H1 0.310743 0.293896 0.22512  0.314539137931
 H1 0.310703 0.793775 0.22662  0.314539137931
 H1 0.810756 0.293896 0.22512  0.314539137931
 H1 0.810715 0.793776 0.22662  0.314539137931
 H1 0.319607 0.251009 0.30795  0.314539137931
 H1 0.320136 0.750414 0.30881  0.314539137931
 H1 0.81962 0.251009 0.30795  0.314539137931
 H1 0.820149 0.750414 0.30881  0.314539137931
 H2 0.039743 0.411059 0.71663  0.0983027490421
 H2 0.039777 0.910772 0.71635  0.0983027490421
 H2 0.539755 0.411059 0.71663  0.0983027490421
 H2 0.53979 0.910772 0.71635  0.0983027490421
 H2 0.372983 0.410974 0.90000  0.0983027490421
 H2 0.372977 0.910124 0.8996  0.0983027490421
 H2 0.872996 0.410974 0.90000  0.0983027490421
 H2 0.87299 0.910124 0.8996  0.0983027490421
 H2 0.029047 0.235045 0.93249  0.0983027490421
 H2 0.028921 0.734001 0.93193  0.0983027490421
 H2 0.52906 0.235045 0.93249  0.0983027490421
 H2 0.528933 0.734001 0.93193  0.0983027490421
 H2 0.43781 0.344303 0.01621  0.0983027490421
 H2 0.438041 0.843498 0.01569  0.0983027490421
 H2 0.937823 0.344303 0.01621  0.0983027490421
 H2 0.938053 0.843498 0.01569  0.0983027490421
 H2 0.033748 0.337392 0.00977  0.0983027490421
 H2 0.033964 0.836494 0.00898  0.0983027490421
 H2 0.533761 0.337392 0.00977  0.0983027490421
 H2 0.533977 0.836494 0.00898  0.0983027490421
 H2 0.364604 0.21731 0.73206  0.0983027490421
 H2 0.363007 0.717403 0.73177  0.0983027490421
 H2 0.864617 0.21731 0.73206  0.0983027490421
 H2 0.86302 0.717403 0.73177  0.0983027490421
 H2 0.316307 0.179605 0.8099  0.0983027490421
 H2 0.31551 0.679605 0.81029  0.0983027490421
 H2 0.816319 0.179605 0.8099  0.0983027490421
 H2 0.815522 0.679605 0.81029  0.0983027490421
 H1 0.329588 0.059424 0.8082  0.314539137931
 H1 0.329625 0.55925 0.80849  0.314539137931
 H1 0.829601 0.059424 0.8082  0.314539137931
 H1 0.829638 0.55925 0.80849  0.314539137931
 H1 0.418584 0.061001 0.8100  0.314539137931
 H1 0.418615 0.561412 0.80882  0.314539137931
 H1 0.918597 0.061001 0.8100  0.314539137931
 H1 0.918628 0.561412 0.80882  0.314539137931
 H2 0.331639 0.111132 0.67135  0.0983027490421
 H2 0.329539 0.610998 0.67158  0.0983027490421
 H2 0.831651 0.111132 0.67135  0.0983027490421
 H2 0.829552 0.610998 0.67158  0.0983027490421
 H2 0.427015 0.114039 0.68412  0.0983027490421
 H2 0.424975 0.614378 0.68266  0.0983027490421
 H2 0.927027 0.114039 0.68412  0.0983027490421
 H2 0.924988 0.614378 0.68266  0.0983027490421
 H2 0.377924 0.140287 0.37363  0.0983027490421
 H2 0.378355 0.640563 0.37392  0.0983027490421
 H2 0.877936 0.140287 0.37363  0.0983027490421
 H2 0.878367 0.640563 0.37392  0.0983027490421
 H1 0.368884 0.253008 0.9092  0.314539137931
 H1 0.368691 0.752067 0.90974  0.314539137931
 H1 0.868897 0.253008 0.9092  0.314539137931
 H1 0.868703 0.752067 0.90974  0.314539137931
 H2 0.043491 0.475354 0.45103  0.0983027490421
 H2 0.043653 0.975713 0.45127  0.0983027490421
 H2 0.543504 0.475354 0.45103  0.0983027490421
 H2 0.543665 0.975713 0.45127  0.0983027490421
 H1 0.385857 0.481754 0.40859  0.314539137931
 H1 0.386127 0.981602 0.40835  0.314539137931
 H1 0.88587 0.481754 0.40859  0.314539137931
 H1 0.88614 0.981602 0.40835  0.314539137931
 H2 0.433376 0.329729 0.23710  0.0983027490421
 H2 0.433329 0.830051 0.23856  0.0983027490421
 H2 0.933388 0.329729 0.23710  0.0983027490421
 H2 0.933341 0.830051 0.23856  0.0983027490421
 H2 0.447236 0.281117 0.32319  0.0983027490421
 H2 0.447599 0.780866 0.32400  0.0983027490421
 H2 0.947249 0.281117 0.32319  0.0983027490421
 H2 0.947612 0.780866 0.32400  0.0983027490421
 H2 0.034793 0.115584 0.17943  0.0983027490421
 H2 0.03432 0.61469 0.17886  0.0983027490421
 H2 0.534806 0.115584 0.17943  0.0983027490421
 H2 0.534333 0.61469 0.17886  0.0983027490421
 H2 0.343923 0.396652 0.32473  0.0983027490421
 H2 0.343544 0.895945 0.32710  0.0983027490421
 H2 0.843936 0.396652 0.32473  0.0983027490421
 H2 0.843557 0.895945 0.32710  0.0983027490421
 H2 0.346912 0.341619 0.40519  0.0983027490421
 H2 0.347416 0.840506 0.40707  0.0983027490421
 H2 0.846925 0.341619 0.40519  0.0983027490421
 H2 0.847429 0.840506 0.40707  0.0983027490421
 H2 0.443527 0.089043 0.49620  0.0983027490421
 H2 0.444215 0.589187 0.49636  0.0983027490421
 H2 0.94354 0.089043 0.49620  0.0983027490421
 H2 0.944228 0.589187 0.49636  0.0983027490421
 H2 0.039314 0.086628 0.4898  0.0983027490421
 H2 0.039961 0.586256 0.4894  0.0983027490421
 H2 0.539327 0.086628 0.4898  0.0983027490421
 H2 0.539974 0.586256 0.4894  0.0983027490421
 C1 0.259224 0.102144 0.22903  0.251886637931
 C1 0.25931 0.602104 0.22950  0.251886637931
 C1 0.759236 0.102144 0.22903  0.251886637931
 C1 0.759323 0.602104 0.22950  0.251886637931
 C2 0.173546 0.101863 0.13407  -0.092983362069
 C2 0.173472 0.602022 0.13474  -0.092983362069
 C2 0.673559 0.101863 0.13407  -0.092983362069
 C2 0.673485 0.602022 0.13474  -0.092983362069
 C3 0.22959 0.13828 0.10608  0.180521637931
 C3 0.229356 0.638666 0.1069  0.180521637931
 C3 0.729602 0.13828 0.10608  0.180521637931
 C3 0.729368 0.638666 0.1069  0.180521637931
 C4 0.218556 0.274025 0.95262  0.615796637931
 C4 0.218418 0.774479 0.95399  0.615796637931
 C4 0.718569 0.274025 0.95262  0.615796637931
 C4 0.718431 0.774479 0.95399  0.615796637931
 C5 0.227648 0.246897 0.04067  0.049066637931
 C5 0.226922 0.747541 0.04221  0.049066637931
 C5 0.72766 0.246897 0.04067  0.049066637931
 C5 0.726935 0.747541 0.04221  0.049066637931
 C6 0.23271 0.173034 0.02629  -0.306433362069
 C6 0.232231 0.67372 0.02745  -0.306433362069
 C6 0.732723 0.173034 0.02629  -0.306433362069
 C6 0.732244 0.67372 0.02745  -0.306433362069
 C6 0.117103 0.324088 0.22592  -0.306433362069
 C6 0.115034 0.824434 0.22667  -0.306433362069
 C6 0.617115 0.324088 0.22592  -0.306433362069
 C6 0.615046 0.824434 0.22667  -0.306433362069
 C7 0.125213 0.385932 0.28202  0.123706637931
 C7 0.123204 0.886321 0.28268  0.123706637931
 C7 0.625225 0.385932 0.28202  0.123706637931
 C7 0.623217 0.886321 0.28268  0.123706637931
 C3 0.23405 0.41196 0.63086  0.180521637931
 C3 0.234149 0.911971 0.63096  0.180521637931
 C3 0.734063 0.41196 0.63086  0.180521637931
 C3 0.734162 0.911971 0.63096  0.180521637931
 C2 0.178355 0.376018 0.66061  -0.092983362069
 C2 0.17853 0.875917 0.66067  -0.092983362069
 C2 0.678367 0.376018 0.66061  -0.092983362069
 C2 0.678542 0.875916 0.66067  -0.092983362069
 C4 0.231405 0.014276 0.43489  0.615796637931
 C4 0.231498 0.514182 0.43475  0.615796637931
 C4 0.731417 0.014276 0.43489  0.615796637931
 C4 0.731511 0.514182 0.43475  0.615796637931
 C5 0.241142 0.005171 0.53124  0.049066637931
 C5 0.241315 0.505071 0.53107  0.049066637931
 C5 0.741154 0.005171 0.53124  0.049066637931
 C5 0.741328 0.505071 0.53107  0.049066637931
 C8 0.180904 0.310984 0.16536  0.577381637931
 C8 0.179448 0.811001 0.16715  0.577381637931
 C8 0.680916 0.310984 0.16536  0.577381637931
 C8 0.67946 0.811001 0.16715  0.577381637931
 C7 0.15679 0.190688 0.70819  0.123706637931
 C7 0.157232 0.690727 0.70701  0.123706637931
 C7 0.656803 0.190688 0.70819  0.123706637931
 C7 0.657245 0.690727 0.70701  0.123706637931
 C1 0.256791 0.39089 0.7630  0.251886637931
 C1 0.25685 0.890992 0.76316  0.251886637931
 C1 0.756804 0.39089 0.7630  0.251886637931
 C1 0.756863 0.890992 0.76316  0.251886637931
 C6 0.12968 0.13718 0.64518  -0.306433362069
 C6 0.129901 0.637764 0.64326  -0.306433362069
 C6 0.629693 0.13718 0.64518  -0.306433362069
 C6 0.629913 0.637764 0.64326  -0.306433362069
 C6 0.241306 0.432587 0.54199  -0.306433362069
 C6 0.241411 0.93264 0.54211  -0.306433362069
 C6 0.741319 0.432587 0.54199  -0.306433362069
 C6 0.741424 0.932639 0.54211  -0.306433362069
 C8 0.192961 0.10312 0.5992  0.577381637931
 C8 0.192988 0.603412 0.5973  0.577381637931
 C8 0.692973 0.10312 0.5992  0.577381637931
 C8 0.693 0.603412 0.5973  0.577381637931
 C1 0.009322 0.399081 0.77258  0.251886637931
 C1 0.009352 0.898646 0.7722  0.251886637931
 C1 0.509335 0.399081 0.77258  0.251886637931
 C1 0.509365 0.898646 0.7722  0.251886637931
 C2 0.423953 0.399464 0.86809  -0.092983362069
 C2 0.423955 0.898735 0.86768  -0.092983362069
 C2 0.923966 0.399464 0.86809  -0.092983362069
 C2 0.923967 0.898735 0.86768  -0.092983362069
 C3 0.479855 0.362414 0.89528  0.180521637931
 C3 0.47988 0.861656 0.89473  0.180521637931
 C3 0.979868 0.362414 0.89528  0.180521637931
 C3 0.979892 0.861656 0.89473  0.180521637931
 C4 0.468637 0.226018 0.04768  0.615796637931
 C4 0.468515 0.725619 0.04745  0.615796637931
 C4 0.96865 0.226018 0.04768  0.615796637931
 C4 0.968528 0.725619 0.04745  0.615796637931
 C5 0.477885 0.253439 0.95985  0.049066637931
 C5 0.477846 0.752578 0.95932  0.049066637931
 C5 0.977897 0.253439 0.95985  0.049066637931
 C5 0.977859 0.752578 0.95932  0.049066637931
 C6 0.483026 0.327252 0.97473  -0.306433362069
 C6 0.483163 0.826423 0.97408  -0.306433362069
 C6 0.983039 0.327252 0.97473  -0.306433362069
 C6 0.983175 0.826423 0.97408  -0.306433362069
 C6 0.367656 0.177406 0.77404  -0.306433362069
 C6 0.36648 0.677478 0.77368  -0.306433362069
 C6 0.867669 0.177406 0.77404  -0.306433362069
 C6 0.866493 0.677478 0.77368  -0.306433362069
 C7 0.375321 0.115125 0.71878  0.123706637931
 C7 0.373762 0.615212 0.71828  0.123706637931
 C7 0.875334 0.115125 0.71878  0.123706637931
 C7 0.873774 0.615212 0.71828  0.123706637931
 C3 0.482814 0.088566 0.37084  0.180521637931
 C3 0.482995 0.588439 0.37076  0.180521637931
 C3 0.982827 0.088566 0.37084  0.180521637931
 C3 0.983008 0.588439 0.37076  0.180521637931
 C2 0.426976 0.124176 0.34052  -0.092983362069
 C2 0.427216 0.624202 0.34060  -0.092983362069
 C2 0.926988 0.124176 0.34052  -0.092983362069
 C2 0.927229 0.624202 0.34060  -0.092983362069
 C4 0.481184 0.485792 0.56646  0.615796637931
 C4 0.481199 0.985848 0.56658  0.615796637931
 C4 0.981197 0.485792 0.56646  0.615796637931
 C4 0.981212 0.985848 0.56658  0.615796637931
 C5 0.990263 0.494873 0.46998  0.049066637931
 C5 0.990292 0.994984 0.47013  0.049066637931
 C5 0.490276 0.494873 0.46998  0.049066637931
 C5 0.490305 0.994984 0.47013  0.049066637931
 C8 0.431276 0.189954 0.8348  0.577381637931
 C8 0.430764 0.689913 0.83352  0.577381637931
 C8 0.931288 0.189954 0.8348  0.577381637931
 C8 0.930777 0.689913 0.83352  0.577381637931
 C7 0.406645 0.309745 0.29194  0.123706637931
 C7 0.406826 0.809598 0.2932  0.123706637931
 C7 0.906657 0.309745 0.29194  0.123706637931
 C7 0.906839 0.809598 0.29320  0.123706637931
 C1 0.006874 0.110575 0.23932  0.251886637931
 C1 0.006643 0.610006 0.23898  0.251886637931
 C1 0.506886 0.110575 0.23932  0.251886637931
 C1 0.506656 0.610006 0.23898  0.251886637931
 C6 0.379439 0.363025 0.35543  -0.306433362069
 C6 0.37949 0.862414 0.35735  -0.306433362069
 C6 0.879452 0.363025 0.35543  -0.306433362069
 C6 0.879502 0.862414 0.35735  -0.306433362069
 C6 0.489453 0.067554 0.45958  -0.306433362069
 C6 0.48986 0.567449 0.45947  -0.306433362069
 C6 0.989465 0.067554 0.45958  -0.306433362069
 C6 0.989872 0.567449 0.45947  -0.306433362069
 C8 0.442608 0.396956 0.40149  0.577381637931
 C8 0.442502 0.896623 0.40338  0.577381637931
 C8 0.942621 0.396956 0.40149  0.577381637931
 C8 0.942514 0.896623 0.40338  0.577381637931
 N1 0.098114 0.233399 0.74260  -0.646343362069
 N1 0.098718 0.73351 0.74167  -0.646343362069
 N1 0.598127 0.233399 0.74260  -0.646343362069
 N1 0.598731 0.73351 0.74167  -0.646343362069
 N2 0.192893 0.36259 0.74411  -0.444428362069
 N2 0.193049 0.862548 0.74420  -0.444428362069
 N2 0.692905 0.36259 0.74411  -0.444428362069
 N2 0.693062 0.862548 0.74420  -0.444428362069
 N2 0.192215 0.079259 0.21206  -0.444428362069
 N2 0.192336 0.579155 0.21248  -0.444428362069
 N2 0.692227 0.079259 0.21206  -0.444428362069
 N2 0.692349 0.579155 0.21248  -0.444428362069
 N2 0.284111 0.1382 0.16727  -0.444428362069
 N2 0.283989 0.638453 0.1679  -0.444428362069
 N2 0.784124 0.1382 0.16727  -0.444428362069
 N2 0.784002 0.638453 0.1679  -0.444428362069
 N1 0.124799 0.443867 0.23237  -0.646343362069
 N1 0.124436 0.944087 0.2327  -0.646343362069
 N1 0.624812 0.443866 0.23237  -0.646343362069
 N1 0.624448 0.944087 0.2327  -0.646343362069
 N2 0.284133 0.421669 0.69709  -0.444428362069
 N2 0.284156 0.921802 0.69725  -0.444428362069
 N2 0.784146 0.421669 0.69709  -0.444428362069
 N2 0.784169 0.921802 0.69725  -0.444428362069
 N3 0.170197 0.26654 0.10042  -0.434643362069
 N3 0.169102 0.767059 0.10150  -0.434643362069
 N3 0.670209 0.26654 0.10042  -0.434643362069
 N3 0.669115 0.767059 0.10150  -0.434643362069
 N3 0.186743 0.038922 0.58429  -0.434643362069
 N3 0.18707 0.539052 0.58409  -0.434643362069
 N3 0.686756 0.038922 0.58429  -0.434643362069
 N3 0.687082 0.539052 0.58409  -0.434643362069
 N1 0.348039 0.267219 0.25741  -0.646343362069
 N1 0.348325 0.767059 0.25837  -0.646343362069
 N1 0.848052 0.267219 0.25741  -0.646343362069
 N1 0.848338 0.767059 0.25837  -0.646343362069
 N2 0.442345 0.138153 0.25740  -0.444428362069
 N2 0.442337 0.637906 0.25731  -0.444428362069
 N2 0.942358 0.138153 0.25740  -0.444428362069
 N2 0.942349 0.637906 0.25731  -0.444428362069
 N2 0.442528 0.422431 0.790  -0.444428362069
 N2 0.442534 0.921906 0.79001  -0.444428362069
 N2 0.942541 0.422431 0.790  -0.444428362069
 N2 0.942547 0.921906 0.79001  -0.444428362069
 N2 0.034169 0.362426 0.8337  -0.444428362069
 N2 0.034205 0.861864 0.83324  -0.444428362069
 N2 0.534181 0.362426 0.8337  -0.444428362069
 N2 0.534217 0.861864 0.83324  -0.444428362069
 N1 0.374621 0.057768 0.76957  -0.646343362069
 N1 0.374194 0.557878 0.76910  -0.646343362069
 N1 0.874634 0.057768 0.76957  -0.646343362069
 N1 0.874206 0.557878 0.76910  -0.646343362069
 N2 0.033832 0.079714 0.30538  -0.444428362069
 N2 0.033711 0.579217 0.30504  -0.444428362069
 N2 0.533844 0.079714 0.30538  -0.444428362069
 N2 0.533723 0.579217 0.30504  -0.444428362069
 N3 0.420516 0.234229 0.8999  -0.434643362069
 N3 0.420281 0.733388 0.89971  -0.434643362069
 N3 0.920528 0.234229 0.8999  -0.434643362069
 N3 0.920294 0.733388 0.89971  -0.434643362069
 N3 0.435916 0.46107 0.41724  -0.434643362069
 N3 0.436111 0.960914 0.41742  -0.434643362069
 N3 0.935929 0.46107 0.41724  -0.434643362069
 N3 0.936124 0.960914 0.41742  -0.434643362069
 O1 0.15289 0.288831 0.93340  -0.596128362069
 O1 0.152875 0.788836 0.9336  -0.596128362069
 O1 0.652902 0.288831 0.93340  -0.596128362069
 O1 0.652888 0.788836 0.9336  -0.596128362069
 O2 0.272235 0.277587 0.9044  -0.588660862069
 O2 0.272634 0.778062 0.90670  -0.588660862069
 O2 0.772248 0.277587 0.9044  -0.588660862069
 O2 0.772646 0.778062 0.90670  -0.588660862069
 O1 0.165693 0.027777 0.41324  -0.596128362069
 O1 0.165757 0.527625 0.41317  -0.596128362069
 O1 0.665705 0.027777 0.41324  -0.596128362069
 O1 0.665769 0.527625 0.41317  -0.596128362069
 O2 0.23995 0.339663 0.17827  -0.588660862069
 O2 0.238528 0.839294 0.1814  -0.588660862069
 O2 0.739962 0.339663 0.17827  -0.588660862069
 O2 0.73854 0.839294 0.1814  -0.588660862069
 O2 0.284059 0.005667 0.38528  -0.588660862069
 O2 0.284138 0.505604 0.38512  -0.588660862069
 O2 0.784072 0.005667 0.38528  -0.588660862069
 O2 0.78415 0.505604 0.38512  -0.588660862069
 O2 0.247121 0.133387 0.57777  -0.588660862069
 O2 0.246837 0.63348 0.5744  -0.588660862069
 O2 0.747134 0.133387 0.57777  -0.588660862069
 O2 0.746849 0.63348 0.5744  -0.588660862069
 O1 0.402979 0.211091 0.06668  -0.596128362069
 O1 0.402828 0.710977 0.06667  -0.596128362069
 O1 0.902991 0.211091 0.06668  -0.596128362069
 O1 0.902841 0.710977 0.06667  -0.596128362069
 O2 0.022195 0.222358 0.0959  -0.588660862069
 O2 0.022042 0.722193 0.09581  -0.588660862069
 O2 0.522208 0.222358 0.0959  -0.588660862069
 O2 0.522055 0.722193 0.09581  -0.588660862069
 O1 0.415669 0.472492 0.58905  -0.596128362069
 O1 0.41568 0.97256 0.58915  -0.596128362069
 O1 0.915681 0.472492 0.58905  -0.596128362069
 O1 0.915692 0.97256 0.58915  -0.596128362069
 O2 0.990241 0.160949 0.82188  -0.588660862069
 O2 0.989764 0.661319 0.81890  -0.588660862069
 O2 0.490254 0.160949 0.82188  -0.588660862069
 O2 0.489777 0.661319 0.81890  -0.588660862069
 O2 0.034249 0.494369 0.61526  -0.588660862069
 O2 0.034261 0.994382 0.61540  -0.588660862069
 O2 0.534261 0.494369 0.61526  -0.588660862069
 O2 0.534274 0.994382 0.61540  -0.588660862069
 O2 0.99701 0.366655 0.42231  -0.588660862069
 O2 0.9966 0.866521 0.42559  -0.588660862069
 O2 0.497023 0.366655 0.42231  -0.588660862069
 O2 0.496613 0.866521 0.42559  -0.588660862069
