#======================================================================

# CRYSTAL DATA

#----------------------------------------------------------------------

data_VESTA_phase_1


_pd_phase_name                         MOF
_cell_length_a                         18.74300
_cell_length_b                         18.76500
_cell_length_c                         18.76200
_cell_angle_alpha                      59.98000
_cell_angle_beta                       60.08300
_cell_angle_gamma                      60.10900
_symmetry_space_group_name_H-M         "P 1"
_symmetry_Int_Tables_number            1

loop_
_symmetry_equiv_pos_as_xyz
   "x, y, z"

loop_
   _atom_site_label
   _atom_site_fract_x
   _atom_site_fract_y
   _atom_site_fract_z
 _atom_site_charge
 Cu1 0.565372 0.000174 0.43460  0.936049294872
 Cu1 0.000235 0.565345 0.99996  0.936049294872
 Cu1 0.434599 0.999819 0.56541  0.936049294872
 Cu1 0.999705 0.434699 8.1e-0  0.936049294872
 Cu1 0.565375 0.434645 0.00013  0.936049294872
 Cu1 0.999771 6.2e-05 0.4346  0.936049294872
 Cu1 0.434607 0.565305 0.9998  0.936049294872
 Cu1 0.000199 0.999914 0.56538  0.936049294872
 Cu1 0.565388 9.1e-05 7.8e-0  0.936049294872
 Cu1 0.999913 0.434586 0.565  0.936049294872
 Cu1 0.434519 0.99988 0.99996  0.936049294872
 Cu1 4.4e-05 0.565377 0.43451  0.936049294872
 H1 0.734134 0.734163 0.50424  0.114709294872
 H1 0.734064 0.734487 0.0273  0.114709294872
 H1 0.504265 0.027895 0.73400  0.114709294872
 H1 0.027289 0.504629 0.73401  0.114709294872
 H1 0.734049 0.505152 0.02700  0.114709294872
 H1 0.734177 0.026584 0.50518  0.114709294872
 H1 0.50476 0.733824 0.73365  0.114709294872
 H1 0.028097 0.733942 0.73364  0.114709294872
 H1 0.734049 0.02771 0.73423  0.114709294872
 H1 0.734257 0.504742 0.73405  0.114709294872
 H1 0.504338 0.733979 0.02771  0.114709294872
 H1 0.028018 0.733945 0.50412  0.114709294872
 H1 0.265827 0.26583 0.49577  0.114709294872
 H1 0.265807 0.265538 0.97267  0.114709294872
 H1 0.972646 0.49535 0.26605  0.114709294872
 H1 0.495719 0.972071 0.26597  0.114709294872
 H1 0.495633 0.265874 0.97229  0.114709294872
 H1 0.97194 0.26599 0.49590  0.114709294872
 H1 0.265742 0.495204 0.26591  0.114709294872
 H1 0.265919 0.972219 0.26582  0.114709294872
 H1 0.971869 0.266065 0.2663  0.114709294872
 H1 0.49523 0.266113 0.26639  0.114709294872
 H1 0.266005 0.494784 0.97303  0.114709294872
 H1 0.265833 0.973392 0.49482  0.114709294872
 C1 0.256691 0.971502 0.38557  -0.170020705128
 C1 0.97067 0.256844 0.38632  -0.170020705128
 C1 0.385733 0.385918 0.25691  -0.170020705128
 C1 0.386069 0.385604 0.97132  -0.170020705128
 C1 0.256608 0.385792 0.38610  -0.170020705128
 C1 0.970887 0.385957 0.38624  -0.170020705128
 C1 0.38592 0.256519 0.97127  -0.170020705128
 C1 0.386037 0.970908 0.25670  -0.170020705128
 C1 0.256702 0.385432 0.97152  -0.170020705128
 C1 0.970944 0.385983 0.25697  -0.170020705128
 C1 0.386037 0.971371 0.38567  -0.170020705128
 C1 0.385749 0.256766 0.38629  -0.170020705128
 C1 0.029296 0.743126 0.61368  -0.170020705128
 C1 0.743301 0.028449 0.61445  -0.170020705128
 C1 0.614256 0.614029 0.74308  -0.170020705128
 C1 0.61394 0.614298 0.02870  -0.170020705128
 C1 0.614222 0.743203 0.61372  -0.170020705128
 C1 0.613962 0.028602 0.61431  -0.170020705128
 C1 0.743261 0.614553 0.02851  -0.170020705128
 C1 0.029006 0.614014 0.74305  -0.170020705128
 C1 0.614 0.743424 0.02876  -0.170020705128
 C1 0.613941 0.029042 0.74331  -0.170020705128
 C1 0.029057 0.614 0.61380  -0.170020705128
 C1 0.743368 0.614181 0.61388  -0.170020705128
 C2 0.570015 0.569768 0.83672  0.692409294872
 C2 0.569676 0.569984 0.02361  0.692409294872
 C2 0.836951 0.023115 0.570  0.692409294872
 C2 0.024044 0.836744 0.56946  0.692409294872
 C2 0.569789 0.836929 0.02358  0.692409294872
 C2 0.569723 0.023923 0.83683  0.692409294872
 C2 0.836882 0.56996 0.5696  0.692409294872
 C2 0.023885 0.569762 0.56960  0.692409294872
 C2 0.569727 0.023395 0.57008  0.692409294872
 C2 0.569984 0.83677 0.56948  0.692409294872
 C2 0.836871 0.57037 0.02334  0.692409294872
 C2 0.023722 0.569814 0.83672  0.692409294872
 C2 0.429962 0.430184 0.16327  0.692409294872
 C2 0.430347 0.429912 0.97640  0.692409294872
 C2 0.975946 0.163219 0.43052  0.692409294872
 C2 0.163042 0.976837 0.42973  0.692409294872
 C2 0.163094 0.429662 0.97669  0.692409294872
 C2 0.976236 0.430203 0.163  0.692409294872
 C2 0.429978 0.163203 0.43056  0.692409294872
 C2 0.430275 0.976585 0.42990  0.692409294872
 C2 0.976078 0.430178 0.43045  0.692409294872
 C2 0.163096 0.430024 0.43030  0.692409294872
 C2 0.430112 0.163016 0.97643  0.692409294872
 C2 0.430247 0.976024 0.16318  0.692409294872
 C3 0.29982 0.971615 0.42857  0.0341588782051
 C3 0.970626 0.299953 0.30018  0.0341588782051
 C3 0.428786 0.299926 0.30017  0.0341588782051
 C3 0.299903 0.428483 0.97147  0.0341588782051
 C3 0.299666 0.428844 0.29993  0.0341588782051
 C3 0.970644 0.299906 0.42939  0.0341588782051
 C3 0.429112 0.299661 0.97110  0.0341588782051
 C3 0.299851 0.971008 0.29968  0.0341588782051
 C3 0.299767 0.299475 0.97131  0.0341588782051
 C3 0.97101 0.428978 0.30005  0.0341588782051
 C3 0.429169 0.970912 0.29978  0.0341588782051
 C3 0.299698 0.299764 0.42928  0.0341588782051
 C3 0.029306 0.700049 0.57063  0.0341588782051
 C3 0.700131 0.028932 0.70035  0.0341588782051
 C3 0.700321 0.57111 0.70005  0.0341588782051
 C3 0.570856 0.700243 0.02892  0.0341588782051
 C3 0.5712 0.700028 0.69984  0.0341588782051
 C3 0.700179 0.028352 0.57144  0.0341588782051
 C3 0.700107 0.571457 0.02856  0.0341588782051
 C3 0.029328 0.70004 0.69982  0.0341588782051
 C3 0.70015 0.700508 0.02872  0.0341588782051
 C3 0.570817 0.02905 0.7002  0.0341588782051
 C3 0.028924 0.571002 0.70000  0.0341588782051
 C3 0.700272 0.700216 0.5707  0.0341588782051
 O1 0.613937 0.492317 0.87335  -0.569640705128
 O1 0.492152 0.613822 0.0206  -0.569640705128
 O1 0.873625 0.020109 0.61422  -0.569640705128
 O1 0.020827 0.873315 0.4920  -0.569640705128
 O1 0.61378 0.873494 0.02066  -0.569640705128
 O1 0.492202 0.020866 0.87325  -0.569640705128
 O1 0.873398 0.613903 0.49210  -0.569640705128
 O1 0.020853 0.492246 0.61366  -0.569640705128
 O1 0.613694 0.020561 0.49257  -0.569640705128
 O1 0.492503 0.873086 0.61345  -0.569640705128
 O1 0.873137 0.492907 0.02046  -0.569640705128
 O1 0.020922 0.613731 0.87318  -0.569640705128
 O1 0.507458 0.386317 0.12688  -0.569640705128
 O1 0.386412 0.50739 0.97921  -0.569640705128
 O1 0.978811 0.126777 0.38655  -0.569640705128
 O1 0.126736 0.97978 0.50720  -0.569640705128
 O1 0.126374 0.385808 0.97965  -0.569640705128
 O1 0.979462 0.507647 0.12672  -0.569640705128
 O1 0.386036 0.12656 0.50805  -0.569640705128
 O1 0.507793 0.979634 0.38598  -0.569640705128
 O1 0.978996 0.386216 0.50802  -0.569640705128
 O1 0.126687 0.507544 0.38625  -0.569640705128
 O1 0.50764 0.126662 0.97942  -0.569640705128
 O1 0.386241 0.978913 0.1266  -0.569640705128
 O1 0.386029 0.507632 0.12664  -0.569640705128
 O1 0.507866 0.386077 0.97939  -0.569640705128
 O1 0.126366 0.979858 0.38580  -0.569640705128
 O1 0.979179 0.12664 0.5079  -0.569640705128
 O1 0.386101 0.126452 0.97939  -0.569640705128
 O1 0.507756 0.979114 0.12675  -0.569640705128
 O1 0.126582 0.386094 0.5078  -0.569640705128
 O1 0.979096 0.5077 0.38639  -0.569640705128
 O1 0.386304 0.979437 0.50740  -0.569640705128
 O1 0.507457 0.126882 0.38659  -0.569640705128
 O1 0.126852 0.50713 0.97955  -0.569640705128
 O1 0.979018 0.386304 0.12683  -0.569640705128
 O1 0.492524 0.613647 0.87311  -0.569640705128
 O1 0.613621 0.492521 0.02076  -0.569640705128
 O1 0.02117 0.873189 0.61343  -0.569640705128
 O1 0.873262 0.02016 0.49283  -0.569640705128
 O1 0.873573 0.614239 0.02038  -0.569640705128
 O1 0.020513 0.492364 0.87330  -0.569640705128
 O1 0.613928 0.873424 0.49199  -0.569640705128
 O1 0.492215 0.02033 0.61401  -0.569640705128
 O1 0.020989 0.613713 0.49202  -0.569640705128
 O1 0.873291 0.492436 0.61372  -0.569640705128
 O1 0.492277 0.873288 0.02055  -0.569640705128
 O1 0.613735 0.020997 0.87337  -0.569640705128
