#======================================================================

# CRYSTAL DATA

#----------------------------------------------------------------------

data_VESTA_phase_1


_pd_phase_name                         MOF
_cell_length_a                         14.41800
_cell_length_b                         14.30400
_cell_length_c                         15.43600
_cell_angle_alpha                      89.97800
_cell_angle_beta                       90.00000
_cell_angle_gamma                      89.98500
_symmetry_space_group_name_H-M         "P 1"
_symmetry_Int_Tables_number            1

loop_
_symmetry_equiv_pos_as_xyz
   "x, y, z"

loop_
   _atom_site_label
   _atom_site_fract_x
   _atom_site_fract_y
   _atom_site_fract_z
 _atom_site_charge
 Zn1 0.250002 0.250675 0.24996  0.751024642857
 Zn1 0.250001 0.250533 0.74985  0.751024642857
 Zn1 0.250003 0.749929 0.2501  0.751024642857
 Zn1 0.250002 0.749673 0.75005  0.751024642857
 Zn1 0.749989 0.250422 0.25000  0.751024642857
 Zn1 0.749989 0.250425 0.74999  0.751024642857
 Zn1 0.74999 0.749591 0.24997  0.751024642857
 Zn1 0.749989 0.749592 0.74997  0.751024642857
 Si1 0.250006 0.251021 0.9999  1.72304464286
 Si1 0.249989 0.249461 0.49996  1.72304464286
 Si1 0.250001 0.750538 2.8e-0  1.72304464286
 Si1 0.249997 0.751064 0.50001  1.72304464286
 Si1 0.749985 0.249484 2e-0  1.72304464286
 Si1 0.749991 0.249471 0.4999  1.72304464286
 Si1 0.749994 0.750551 0.99999  1.72304464286
 Si1 0.749993 0.750541 0.49998  1.72304464286
 H1 0.250411 0.412684 0.38571  0.0980446428571
 H1 0.249286 0.412513 0.88518  0.0980446428571
 H1 0.249787 0.912959 0.38491  0.0980446428571
 H1 0.250345 0.912574 0.88549  0.0980446428571
 H1 0.749909 0.412306 0.38531  0.0980446428571
 H1 0.749899 0.412298 0.88531  0.0980446428571
 H1 0.749951 0.912421 0.38534  0.0980446428571
 H1 0.749988 0.912419 0.8853  0.0980446428571
 H1 0.249807 0.087994 0.38487  0.0980446428571
 H1 0.250695 0.087714 0.88545  0.0980446428571
 H1 0.250426 0.588003 0.38581  0.0980446428571
 H1 0.249653 0.587723 0.88518  0.0980446428571
 H1 0.749999 0.08748 0.38535  0.0980446428571
 H1 0.750001 0.087479 0.88534  0.0980446428571
 H1 0.749951 0.587617 0.38531  0.0980446428571
 H1 0.749899 0.587608 0.88532  0.0980446428571
 H1 0.087016 0.250973 0.38524  0.0980446428571
 H1 0.086983 0.249297 0.88530  0.0980446428571
 H1 0.086962 0.750273 0.3853  0.0980446428571
 H1 0.086974 0.749649 0.88529  0.0980446428571
 H1 0.586951 0.249882 0.38531  0.0980446428571
 H1 0.586969 0.250368 0.88525  0.0980446428571
 H1 0.587007 0.749933 0.38529  0.0980446428571
 H1 0.586989 0.749885 0.88529  0.0980446428571
 H1 0.412994 0.25014 0.38528  0.0980446428571
 H1 0.413029 0.250585 0.88527  0.0980446428571
 H1 0.413046 0.750196 0.38533  0.0980446428571
 H1 0.413026 0.749917 0.88530  0.0980446428571
 H1 0.913039 0.250705 0.38527  0.0980446428571
 H1 0.913025 0.249694 0.88529  0.0980446428571
 H1 0.912982 0.749993 0.38530  0.0980446428571
 H1 0.912991 0.749551 0.88528  0.0980446428571
 H1 0.249272 0.412979 0.1150  0.0980446428571
 H1 0.250378 0.412538 0.61451  0.0980446428571
 H1 0.250341 0.912914 0.11424  0.0980446428571
 H1 0.249767 0.912652 0.61478  0.0980446428571
 H1 0.749953 0.412408 0.11465  0.0980446428571
 H1 0.749942 0.412411 0.61465  0.0980446428571
 H1 0.749963 0.912541 0.11463  0.0980446428571
 H1 0.749917 0.912541 0.6146  0.0980446428571
 H1 0.250686 0.088052 0.11418  0.0980446428571
 H1 0.249797 0.087691 0.61475  0.0980446428571
 H1 0.249632 0.588192 0.11511  0.0980446428571
 H1 0.250401 0.587862 0.61452  0.0980446428571
 H1 0.749971 0.0876 0.11464  0.0980446428571
 H1 0.749967 0.0876 0.61463  0.0980446428571
 H1 0.749948 0.587717 0.11465  0.0980446428571
 H1 0.749986 0.587722 0.61465  0.0980446428571
 H1 0.413065 0.250885 0.11466  0.0980446428571
 H1 0.413023 0.249988 0.6146  0.0980446428571
 H1 0.412982 0.750105 0.11472  0.0980446428571
 H1 0.413002 0.750115 0.61470  0.0980446428571
 H1 0.912995 0.249766 0.11467  0.0980446428571
 H1 0.913009 0.250687 0.61469  0.0980446428571
 H1 0.913037 0.749618 0.11470  0.0980446428571
 H1 0.913019 0.750026 0.6146  0.0980446428571
 H1 0.086952 0.249549 0.11462  0.0980446428571
 H1 0.086984 0.250754 0.61468  0.0980446428571
 H1 0.087022 0.749829 0.11473  0.0980446428571
 H1 0.087003 0.750156 0.61469  0.0980446428571
 H1 0.587002 0.250501 0.11471  0.0980446428571
 H1 0.586979 0.249924 0.61465  0.0980446428571
 H1 0.586948 0.749965 0.11469  0.0980446428571
 H1 0.586967 0.749994 0.61469  0.0980446428571
 C1 0.250219 0.451728 0.32515  0.104030892857
 C1 0.249694 0.451452 0.82458  0.104030892857
 C1 0.249902 0.95183 0.32427  0.104030892857
 C1 0.250232 0.951464 0.82484  0.104030892857
 C1 0.749929 0.451318 0.32473  0.104030892857
 C1 0.749913 0.451312 0.82473  0.104030892857
 C1 0.74997 0.951307 0.32469  0.104030892857
 C1 0.749985 0.951306 0.82468  0.104030892857
 C1 0.24993 0.049149 0.32423  0.104030892857
 C1 0.250326 0.04881 0.82483  0.104030892857
 C1 0.250249 0.549082 0.32519  0.104030892857
 C1 0.249797 0.548779 0.82458  0.104030892857
 C1 0.749987 0.048648 0.32470  0.104030892857
 C1 0.749994 0.048646 0.8246  0.104030892857
 C1 0.749946 0.548651 0.32473  0.104030892857
 C1 0.749919 0.548646 0.82473  0.104030892857
 C1 0.048349 0.250627 0.32463  0.104030892857
 C1 0.048343 0.249767 0.82467  0.104030892857
 C1 0.048316 0.750158 0.32471  0.104030892857
 C1 0.04832 0.749793 0.82467  0.104030892857
 C1 0.548303 0.250025 0.32469  0.104030892857
 C1 0.548312 0.250239 0.82463  0.104030892857
 C1 0.548332 0.750035 0.32468  0.104030892857
 C1 0.548323 0.749968 0.82468  0.104030892857
 C1 0.451662 0.250177 0.32467  0.104030892857
 C1 0.451669 0.250311 0.82464  0.104030892857
 C1 0.451692 0.750156 0.32470  0.104030892857
 C1 0.451682 0.749995 0.82468  0.104030892857
 C1 0.951688 0.250506 0.32465  0.104030892857
 C1 0.951678 0.249849 0.82467  0.104030892857
 C1 0.951654 0.750022 0.32469  0.104030892857
 C1 0.951658 0.749738 0.8246  0.104030892857
 C1 0.249687 0.451854 0.17566  0.104030892857
 C1 0.2502 0.451504 0.67509  0.104030892857
 C1 0.25023 0.9518 0.17486  0.104030892857
 C1 0.249892 0.951489 0.67543  0.104030892857
 C1 0.749945 0.451373 0.1752  0.104030892857
 C1 0.749943 0.451375 0.67523  0.104030892857
 C1 0.749972 0.951373 0.17528  0.104030892857
 C1 0.74995 0.951373 0.67527  0.104030892857
 C1 0.25032 0.049147 0.17482  0.104030892857
 C1 0.249924 0.048829 0.67541  0.104030892857
 C1 0.249786 0.549181 0.17569  0.104030892857
 C1 0.250235 0.548839 0.67509  0.104030892857
 C1 0.749978 0.048714 0.17529  0.104030892857
 C1 0.749969 0.048714 0.67527  0.104030892857
 C1 0.74995 0.548707 0.17524  0.104030892857
 C1 0.749962 0.548708 0.6752  0.104030892857
 C1 0.45169 0.250538 0.17529  0.104030892857
 C1 0.451678 0.25003 0.67526  0.104030892857
 C1 0.451657 0.750128 0.17533  0.104030892857
 C1 0.451669 0.750079 0.67531  0.104030892857
 C1 0.951661 0.249948 0.17528  0.104030892857
 C1 0.951671 0.250431 0.67530  0.104030892857
 C1 0.951686 0.749807 0.17532  0.104030892857
 C1 0.951674 0.749999 0.675  0.104030892857
 C1 0.048325 0.249969 0.17526  0.104030892857
 C1 0.048331 0.250442 0.67530  0.104030892857
 C1 0.048349 0.749926 0.17534  0.104030892857
 C1 0.048336 0.750057 0.67530  0.104030892857
 C1 0.548332 0.250369 0.17532  0.104030892857
 C1 0.548317 0.249984 0.6752  0.104030892857
 C1 0.548298 0.75004 0.17531  0.104030892857
 C1 0.548309 0.750032 0.6753  0.104030892857
 N1 0.249933 0.402961 0.25038  -0.245470357143
 N1 0.249926 0.402656 0.74984  -0.245470357143
 N1 0.250009 0.902902 0.24959  -0.245470357143
 N1 0.250001 0.902565 0.75014  -0.245470357143
 N1 0.749917 0.402532 0.2499  -0.245470357143
 N1 0.749918 0.40253 0.74998  -0.245470357143
 N1 0.749956 0.902428 0.2499  -0.245470357143
 N1 0.749961 0.902428 0.74997  -0.245470357143
 N1 0.250141 0.098049 0.2495  -0.245470357143
 N1 0.250144 0.097726 0.7501  -0.245470357143
 N1 0.250054 0.597944 0.25045  -0.245470357143
 N1 0.250054 0.597622 0.74984  -0.245470357143
 N1 0.750016 0.097592 0.2  -0.245470357143
 N1 0.750007 0.097591 0.74998  -0.245470357143
 N1 0.749973 0.597493 0.24998  -0.245470357143
 N1 0.749959 0.597491 0.74998  -0.245470357143
 N1 0.096911 0.25037 0.24994  -0.245470357143
 N1 0.096911 0.250123 0.74998  -0.245470357143
 N1 0.096904 0.750125 0.25004  -0.245470357143
 N1 0.0969 0.749974 0.74999  -0.245470357143
 N1 0.596889 0.250157 0.25001  -0.245470357143
 N1 0.596886 0.250117 0.74995  -0.245470357143
 N1 0.596885 0.749984 0.24999  -0.245470357143
 N1 0.596886 0.749973 0.74999  -0.245470357143
 N1 0.403103 0.250437 0.24997  -0.245470357143
 N1 0.4031 0.250198 0.74995  -0.245470357143
 N1 0.403104 0.750174 0.25003  -0.245470357143
 N1 0.403105 0.75003 0.75000  -0.245470357143
 N1 0.903101 0.250202 0.24997  -0.245470357143
 N1 0.903101 0.250163 0.74999  -0.245470357143
 N1 0.903099 0.749839 0.25000  -0.245470357143
 N1 0.903094 0.749818 0.74998  -0.245470357143
 F1 0.249996 0.250741 0.38504  -0.479765357143
 F1 0.249998 0.251001 0.88513  -0.479765357143
 F1 0.250001 0.752696 0.38506  -0.479765357143
 F1 0.25 0.74931 0.8850  -0.479765357143
 F1 0.749988 0.250724 0.38505  -0.479765357143
 F1 0.749986 0.250721 0.8850  -0.479765357143
 F1 0.74999 0.749309 0.38505  -0.479765357143
 F1 0.749991 0.749307 0.8850  -0.479765357143
 F1 0.249998 0.251008 0.11482  -0.479765357143
 F1 0.249996 0.250718 0.61491  -0.479765357143
 F1 0.25 0.749311 0.11495  -0.479765357143
 F1 0.250001 0.749306 0.61493  -0.479765357143
 F1 0.749985 0.250714 0.11493  -0.479765357143
 F1 0.749988 0.250713 0.61492  -0.479765357143
 F1 0.749991 0.7493 0.11493  -0.479765357143
 F1 0.74999 0.749298 0.61492  -0.479765357143
 F2 0.335096 0.332794 0.99998  -0.537315357143
 F2 0.332591 0.333198 0.4999  -0.537315357143
 F2 0.332303 0.834787 0.99999  -0.537315357143
 F2 0.332444 0.835001 0.50022  -0.537315357143
 F2 0.832583 0.333194 0.99999  -0.537315357143
 F2 0.832598 0.333193 0.49998  -0.537315357143
 F2 0.832291 0.834774 0.99999  -0.537315357143
 F2 0.832293 0.834769 0.49998  -0.537315357143
 F2 0.164894 0.169253 7e-0  -0.537315357143
 F2 0.167696 0.165255 0.49999  -0.537315357143
 F2 0.167394 0.666834 1.2e-0  -0.537315357143
 F2 0.167558 0.667039 0.49975  -0.537315357143
 F2 0.667687 0.165254 7e-0  -0.537315357143
 F2 0.667679 0.16525 0.49999  -0.537315357143
 F2 0.667391 0.666833 7e-0  -0.537315357143
 F2 0.667385 0.666829 0.49999  -0.537315357143
 F2 0.168837 0.336842 0.99998  -0.537315357143
 F2 0.167371 0.333205 0.4999  -0.537315357143
 F2 0.16769 0.83479 0.99999  -0.537315357143
 F2 0.167538 0.83502 0.50022  -0.537315357143
 F2 0.66736 0.333205 0.99999  -0.537315357143
 F2 0.667372 0.333202 0.49998  -0.537315357143
 F2 0.667674 0.83479 0.99999  -0.537315357143
 F2 0.667677 0.834785 0.49998  -0.537315357143
 F2 0.331187 0.165204 6e-0  -0.537315357143
 F2 0.332314 0.165245 0.49999  -0.537315357143
 F2 0.33262 0.666827 0.99998  -0.537315357143
 F2 0.332461 0.66702 0.49975  -0.537315357143
 F2 0.832302 0.165236 7e-0  -0.537315357143
 F2 0.832297 0.165235 0.49999  -0.537315357143
 F2 0.832616 0.666823 7e-0  -0.537315357143
 F2 0.832614 0.666818 0.49999  -0.537315357143
