#======================================================================

# CRYSTAL DATA

#----------------------------------------------------------------------

data_VESTA_phase_1


_pd_phase_name                         MOF
_cell_length_a                         14.77500
_cell_length_b                         18.05500
_cell_length_c                         18.05500
_cell_angle_alpha                      90.00000
_cell_angle_beta                       90.00100
_cell_angle_gamma                      90.01800
_symmetry_space_group_name_H-M         "P 1"
_symmetry_Int_Tables_number            1

loop_
_symmetry_equiv_pos_as_xyz
   "x, y, z"

loop_
   _atom_site_label
   _atom_site_fract_x
   _atom_site_fract_y
   _atom_site_fract_z
 _atom_site_charge
 Zn1 0.374995 0.999983 0.  0.690320333333
 Zn1 0.375 0.999982 0.50000  0.690320333333
 Zn1 0.374999 0.499986 0.50000  0.690320333333
 Zn1 0.374994 0.499986 0.  0.690320333333
 Zn1 0.875011 0.999982 3e-0  0.690320333333
 Zn1 0.875006 0.999982 0.50000  0.690320333333
 Zn1 0.875005 0.499986 0.50000  0.690320333333
 Zn1 0.87501 0.499985 3e-0  0.690320333333
 Zn1 0.125002 1.8e-05 0.99999  0.690320333333
 Zn1 0.124997 1.8e-05 0.  0.690320333333
 Zn1 0.124991 0.500022 0.  0.690320333333
 Zn1 0.124996 0.500022 0.  0.690320333333
 Zn1 0.625008 1.8e-05 0.99999  0.690320333333
 Zn1 0.625003 1.8e-05 0.  0.690320333333
 Zn1 0.625007 0.500021 0.99999  0.690320333333
 Zn1 0.625002 0.500022 0.  0.690320333333
 H1 0.35359 0.174128 0.50008  0.0982603333333
 H1 0.353585 0.174129 0.  0.0982603333333
 H1 0.35359 0.674132 0.50008  0.0982603333333
 H1 0.353584 0.674132 0.  0.0982603333333
 H1 0.853601 0.174128 7.4e-0  0.0982603333333
 H1 0.853596 0.174128 0.50008  0.0982603333333
 H1 0.853591 0.674132 0.  0.0982603333333
 H1 0.853596 0.674132 0.50008  0.0982603333333
 H1 0.353577 0.325816 0.  0.0982603333333
 H1 0.353582 0.325816 0.5000  0.0982603333333
 H1 0.353586 0.825819 7.2e-0  0.0982603333333
 H1 0.353581 0.825819 0.50008  0.0982603333333
 H1 0.853593 0.325815 7.7e-0  0.0982603333333
 H1 0.853588 0.325816 0.5000  0.0982603333333
 H1 0.853587 0.825819 0.50008  0.0982603333333
 H1 0.853592 0.825819 7.3e-0  0.0982603333333
 H1 0.103577 0.000109 0.17416  0.0982603333333
 H1 0.103572 0.000111 0.67416  0.0982603333333
 H1 0.103576 0.500113 0.17416  0.0982603333333
 H1 0.103571 0.500109 0.67416  0.0982603333333
 H1 0.603584 0.000108 0.17416  0.0982603333333
 H1 0.603578 0.000108 0.67416  0.0982603333333
 H1 0.603583 0.500114 0.17416  0.0982603333333
 H1 0.603577 0.500109 0.67416  0.0982603333333
 H1 0.103595 0.000111 0.32585  0.0982603333333
 H1 0.103589 0.000111 0.82585  0.0982603333333
 H1 0.103594 0.500113 0.32585  0.0982603333333
 H1 0.103589 0.50011 0.82585  0.0982603333333
 H1 0.603601 0.000113 0.32585  0.0982603333333
 H1 0.603595 0.000111 0.82585  0.0982603333333
 H1 0.6036 0.500113 0.32585  0.0982603333333
 H1 0.603595 0.500111 0.82585  0.0982603333333
 H1 0.146401 0.325876 0.99992  0.0982603333333
 H1 0.146406 0.325876 0.49992  0.0982603333333
 H1 0.146405 0.825879 0.4999  0.0982603333333
 H1 0.1464 0.82588 0.99992  0.0982603333333
 H1 0.646412 0.325876 0.49992  0.0982603333333
 H1 0.646417 0.325875 0.99991  0.0982603333333
 H1 0.646411 0.825879 0.49991  0.0982603333333
 H1 0.646416 0.825879 0.99992  0.0982603333333
 H1 0.146409 0.174189 0.99992  0.0982603333333
 H1 0.146414 0.174188 0.49992  0.0982603333333
 H1 0.146413 0.674191 0.49992  0.0982603333333
 H1 0.146408 0.674192 0.9999  0.0982603333333
 H1 0.646425 0.174188 0.99992  0.0982603333333
 H1 0.64642 0.174188 0.49992  0.0982603333333
 H1 0.646419 0.674192 0.49992  0.0982603333333
 H1 0.646424 0.674191 0.99992  0.0982603333333
 H1 0.396407 0.999889 0.17415  0.0982603333333
 H1 0.396402 0.999887 0.67415  0.0982603333333
 H1 0.396406 0.499888 0.17415  0.0982603333333
 H1 0.396401 0.499892 0.67415  0.0982603333333
 H1 0.896414 0.99989 0.17415  0.0982603333333
 H1 0.896408 0.999889 0.67415  0.0982603333333
 H1 0.896413 0.499887 0.17415  0.0982603333333
 H1 0.896407 0.499891 0.67415  0.0982603333333
 H1 0.396425 0.99989 0.32583  0.0982603333333
 H1 0.396419 0.999889 0.82584  0.0982603333333
 H1 0.396424 0.499891 0.32583  0.0982603333333
 H1 0.396419 0.499893 0.82584  0.0982603333333
 H1 0.896431 0.999888 0.32583  0.0982603333333
 H1 0.896425 0.999889 0.82584  0.0982603333333
 H1 0.89643 0.499891 0.32583  0.0982603333333
 H1 0.896425 0.499892 0.82584  0.0982603333333
 C1 2e-06 0.209712 0.99999  -0.0306196666667
 C1 0.999997 0.209713 0.50000  -0.0306196666667
 C1 0.0 0.709716 0.  -0.0306196666667
 C1 0.0 0.709716 0.50000  -0.0306196666667
 C1 0.500004 0.209713 0.50000  -0.0306196666667
 C1 0.500009 0.209712 0.99999  -0.0306196666667
 C1 0.500003 0.709716 0.50000  -0.0306196666667
 C1 0.500008 0.709715 0.99999  -0.0306196666667
 C1 0.0 0.290292 0.  -0.0306196666667
 C1 0.0 0.290291 0.50000  -0.0306196666667
 C1 0.999999 0.790295 0.  -0.0306196666667
 C1 0.0 0.790295 0.50000  -0.0306196666667
 C1 0.499998 0.290291 0.50000  -0.0306196666667
 C1 0.500003 0.290291 0.99999  -0.0306196666667
 C1 0.499998 0.790295 0.50000  -0.0306196666667
 C1 0.500002 0.790294 0.99999  -0.0306196666667
 C1 0.249996 0.999999 0.20971  -0.0306196666667
 C1 0.249991 0.999999 0.70971  -0.0306196666667
 C1 0.249995 0.500001 0.20971  -0.0306196666667
 C1 0.24999 0.5 0.70971  -0.0306196666667
 C1 0.750003 0.999999 0.20971  -0.0306196666667
 C1 0.749996 0.999999 0.70971  -0.0306196666667
 C1 0.750001 0.500001 0.20971  -0.0306196666667
 C1 0.749996 0.5 0.70971  -0.0306196666667
 C1 0.250006 0.0 0.29029  -0.0306196666667
 C1 0.25 0.999999 0.79029  -0.0306196666667
 C1 0.250005 0.500001 0.29029  -0.0306196666667
 C1 0.25 0.500001 0.79029  -0.0306196666667
 C1 0.750012 0.0 0.29029  -0.0306196666667
 C1 0.750006 0.999999 0.79029  -0.0306196666667
 C1 0.750011 0.500001 0.29029  -0.0306196666667
 C1 0.750006 0.500001 0.79029  -0.0306196666667
 C2 0.425434 0.161511 4.3e-0  -0.00129966666667
 C2 0.425429 0.161512 0.50004  -0.00129966666667
 C2 0.425433 0.661514 4.3e-0  -0.00129966666667
 C2 0.425428 0.661515 0.50004  -0.00129966666667
 C2 0.92544 0.161511 4.3e-0  -0.00129966666667
 C2 0.925435 0.161512 0.50004  -0.00129966666667
 C2 0.925439 0.661514 4.1e-0  -0.00129966666667
 C2 0.925434 0.661515 0.50004  -0.00129966666667
 C2 0.425423 0.338458 0.50004  -0.00129966666667
 C2 0.425418 0.338459 0.  -0.00129966666667
 C2 0.425422 0.838461 0.50004  -0.00129966666667
 C2 0.425417 0.838462 0.  -0.00129966666667
 C2 0.925424 0.338459 0.  -0.00129966666667
 C2 0.925429 0.338458 0.50004  -0.00129966666667
 C2 0.925433 0.838461 4.2e-0  -0.00129966666667
 C2 0.925428 0.838461 0.50004  -0.00129966666667
 C2 0.175416 5.3e-05 0.16153  -0.00129966666667
 C2 0.175411 5.4e-05 0.66153  -0.00129966666667
 C2 0.175415 0.500056 0.16153  -0.00129966666667
 C2 0.17541 0.500054 0.66153  -0.00129966666667
 C2 0.675423 5.3e-05 0.16153  -0.00129966666667
 C2 0.675417 5.3e-05 0.66153  -0.00129966666667
 C2 0.675422 0.500057 0.16153  -0.00129966666667
 C2 0.675416 0.500055 0.66153  -0.00129966666667
 C2 0.175436 5.5e-05 0.33847  -0.00129966666667
 C2 0.17543 5.5e-05 0.83848  -0.00129966666667
 C2 0.175434 0.500057 0.33847  -0.00129966666667
 C2 0.175429 0.500056 0.83848  -0.00129966666667
 C2 0.675442 5.6e-05 0.33847  -0.00129966666667
 C2 0.675436 5.5e-05 0.83848  -0.00129966666667
 C2 0.675441 0.500057 0.33847  -0.00129966666667
 C2 0.675435 0.500056 0.83848  -0.00129966666667
 C2 0.074572 0.338492 0.99995  -0.00129966666667
 C2 0.074567 0.338492 0.49995  -0.00129966666667
 C2 0.074571 0.838495 0.99995  -0.00129966666667
 C2 0.074567 0.838496 0.49995  -0.00129966666667
 C2 0.574569 0.338493 0.99995  -0.00129966666667
 C2 0.574573 0.338492 0.49995  -0.00129966666667
 C2 0.574573 0.838496 0.49995  -0.00129966666667
 C2 0.574577 0.838495 0.99995  -0.00129966666667
 C2 0.074578 0.161545 0.99995  -0.00129966666667
 C2 0.074573 0.161546 0.49995  -0.00129966666667
 C2 0.074572 0.661549 0.49995  -0.00129966666667
 C2 0.074577 0.661549 0.99995  -0.00129966666667
 C2 0.574584 0.161545 0.99995  -0.00129966666667
 C2 0.574579 0.161546 0.49995  -0.00129966666667
 C2 0.574578 0.661549 0.49995  -0.00129966666667
 C2 0.574583 0.661549 0.99995  -0.00129966666667
 C2 0.324567 0.999945 0.16152  -0.00129966666667
 C2 0.324561 0.999943 0.66152  -0.00129966666667
 C2 0.324566 0.499945 0.16152  -0.00129966666667
 C2 0.324561 0.499947 0.66152  -0.00129966666667
 C2 0.824573 0.999945 0.16152  -0.00129966666667
 C2 0.824567 0.999944 0.66152  -0.00129966666667
 C2 0.824572 0.499945 0.16152  -0.00129966666667
 C2 0.824567 0.499947 0.66152  -0.00129966666667
 C2 0.324586 0.999946 0.33847  -0.00129966666667
 C2 0.32458 0.999945 0.83847  -0.00129966666667
 C2 0.324585 0.499947 0.33847  -0.00129966666667
 C2 0.32458 0.499948 0.83847  -0.00129966666667
 C2 0.824592 0.999945 0.33847  -0.00129966666667
 C2 0.824586 0.999945 0.83847  -0.00129966666667
 C2 0.824591 0.499947 0.33847  -0.00129966666667
 C2 0.824586 0.499948 0.83847  -0.00129966666667
 N1 0.453613 0.090314 2.4e-0  -0.254230916667
 N1 0.453608 0.090314 0.50002  -0.254230916667
 N1 0.453608 0.590318 0.50002  -0.254230916667
 N1 0.453612 0.590317 2.4e-0  -0.254230916667
 N1 0.953619 0.090314 2.3e-0  -0.254230916667
 N1 0.953614 0.090314 0.50002  -0.254230916667
 N1 0.953618 0.590317 2.2e-0  -0.254230916667
 N1 0.953614 0.590318 0.50002  -0.254230916667
 N1 0.453603 0.40967 0.  -0.254230916667
 N1 0.453608 0.40967 0.50002  -0.254230916667
 N1 0.453612 0.909673 2.2e-0  -0.254230916667
 N1 0.453607 0.909673 0.50002  -0.254230916667
 N1 0.953609 0.40967 0.  -0.254230916667
 N1 0.953614 0.40967 0.50002  -0.254230916667
 N1 0.953613 0.909673 0.50002  -0.254230916667
 N1 0.953618 0.909673 2.2e-0  -0.254230916667
 N1 0.203596 3.2e-05 0.09032  -0.254230916667
 N1 0.20359 3.3e-05 0.5903  -0.254230916667
 N1 0.203595 0.500036 0.09032  -0.254230916667
 N1 0.20359 0.500035 0.5903  -0.254230916667
 N1 0.703602 3.2e-05 0.09032  -0.254230916667
 N1 0.703596 3.3e-05 0.5903  -0.254230916667
 N1 0.703601 0.500036 0.09032  -0.254230916667
 N1 0.703596 0.500035 0.5903  -0.254230916667
 N1 0.203621 3.5e-05 0.40968  -0.254230916667
 N1 0.203615 3.5e-05 0.90968  -0.254230916667
 N1 0.203619 0.500038 0.40968  -0.254230916667
 N1 0.203614 0.500037 0.90968  -0.254230916667
 N1 0.703627 3.5e-05 0.40968  -0.254230916667
 N1 0.703621 3.5e-05 0.90968  -0.254230916667
 N1 0.703626 0.500038 0.40968  -0.254230916667
 N1 0.70362 0.500037 0.90968  -0.254230916667
 N1 0.046383 0.40969 0.9999  -0.254230916667
 N1 0.046387 0.40969 0.49997  -0.254230916667
 N1 0.046387 0.909693 0.49997  -0.254230916667
 N1 0.046382 0.909694 0.99998  -0.254230916667
 N1 0.546399 0.409689 0.99997  -0.254230916667
 N1 0.546394 0.40969 0.49997  -0.254230916667
 N1 0.546398 0.909693 0.99997  -0.254230916667
 N1 0.546393 0.909693 0.49997  -0.254230916667
 N1 0.046383 0.090335 0.99998  -0.254230916667
 N1 0.046388 0.090334 0.49997  -0.254230916667
 N1 0.046387 0.590337 0.49997  -0.254230916667
 N1 0.046382 0.590338 0.99998  -0.254230916667
 N1 0.546399 0.090334 0.99997  -0.254230916667
 N1 0.546394 0.090334 0.49997  -0.254230916667
 N1 0.546398 0.590337 0.99997  -0.254230916667
 N1 0.546393 0.590337 0.49997  -0.254230916667
 N1 0.296382 0.999965 0.09032  -0.254230916667
 N1 0.296376 0.999965 0.59032  -0.254230916667
 N1 0.296381 0.499967 0.09032  -0.254230916667
 N1 0.296376 0.499968 0.59032  -0.254230916667
 N1 0.796388 0.999966 0.09032  -0.254230916667
 N1 0.796382 0.999965 0.59032  -0.254230916667
 N1 0.796387 0.499967 0.09032  -0.254230916667
 N1 0.796382 0.499968 0.59032  -0.254230916667
 N1 0.296406 0.999967 0.40967  -0.254230916667
 N1 0.296401 0.999967 0.9096  -0.254230916667
 N1 0.296405 0.49997 0.40967  -0.254230916667
 N1 0.2964 0.49997 0.9096  -0.254230916667
 N1 0.796413 0.999967 0.40967  -0.254230916667
 N1 0.796407 0.999967 0.9096  -0.254230916667
 N1 0.796411 0.49997 0.40967  -0.254230916667
 N1 0.796406 0.49997 0.9096  -0.254230916667
