#======================================================================

# CRYSTAL DATA

#----------------------------------------------------------------------

data_VESTA_phase_1


_pd_phase_name                         MOF
_cell_length_a                         13.96400
_cell_length_b                         15.50500
_cell_length_c                         19.52900
_cell_angle_alpha                      89.99100
_cell_angle_beta                       102.09100
_cell_angle_gamma                      90.00700
_symmetry_space_group_name_H-M         "P 1"
_symmetry_Int_Tables_number            1

loop_
_symmetry_equiv_pos_as_xyz
   "x, y, z"

loop_
   _atom_site_label
   _atom_site_fract_x
   _atom_site_fract_y
   _atom_site_fract_z
 _atom_site_charge
 Cd1 0.000286 0.999967 0.99993  0.991091764706
 Cd1 0.000254 3.2e-05 0.49989  0.991091764706
 Cd1 0.000269 0.500034 4.5e-0  0.991091764706
 Cd1 0.0003 0.499982 0.50006  0.991091764706
 Cd1 0.500372 2.8e-05 2.5e-0  0.991091764706
 Cd1 0.500356 7.5e-05 0.49999  0.991091764706
 Cd1 0.500263 0.499985 4.1e-0  0.991091764706
 Cd1 0.500302 0.500068 0.5000  0.991091764706
 Ni1 0.249936 0.24999 0.99997  -0.00528823529412
 Ni1 0.250123 0.250016 0.50003  -0.00528823529412
 Ni1 0.25001 0.750038 0.49999  -0.00528823529412
 Ni1 0.250096 0.750023 1.3e-0  -0.00528823529412
 Ni1 0.750901 0.250017 0.00018  -0.00528823529412
 Ni1 0.750857 0.250029 0.50020  -0.00528823529412
 Ni1 0.750862 0.750005 0.00018  -0.00528823529412
 Ni1 0.750914 0.750027 0.50013  -0.00528823529412
 H1 0.493893 0.053043 0.36273  0.282726764706
 H1 0.494746 0.052894 0.86286  0.282726764706
 H1 0.494121 0.552926 0.36283  0.282726764706
 H1 0.494097 0.552899 0.86284  0.282726764706
 H1 0.994369 0.052895 0.36273  0.282726764706
 H1 0.994387 0.05289 0.8627  0.282726764706
 H1 0.994353 0.552902 0.36290  0.282726764706
 H1 0.994337 0.55291 0.86287  0.282726764706
 H2 0.170853 0.443398 0.40276  0.0702000980392
 H2 0.170835 0.443408 0.90276  0.0702000980392
 H2 0.170854 0.943416 0.40272  0.0702000980392
 H2 0.170876 0.943405 0.90273  0.0702000980392
 H2 0.670615 0.443422 0.40279  0.0702000980392
 H2 0.670603 0.443403 0.90278  0.0702000980392
 H2 0.671538 0.945022 0.40304  0.0702000980392
 H2 0.671219 0.943419 0.90300  0.0702000980392
 H2 0.102224 0.05701 0.27243  0.0702000980392
 H2 0.102232 0.057015 0.77245  0.0702000980392
 H2 0.102136 0.557028 0.27249  0.0702000980392
 H2 0.102124 0.557024 0.77248  0.0702000980392
 H2 0.602199 0.057707 0.27229  0.0702000980392
 H2 0.602605 0.05701 0.77270  0.0702000980392
 H2 0.601967 0.557029 0.27250  0.0702000980392
 H2 0.60195 0.557027 0.77250  0.0702000980392
 H2 0.285061 0.443272 0.31530  0.0702000980392
 H2 0.285048 0.443269 0.81529  0.0702000980392
 H2 0.285154 0.943286 0.31528  0.0702000980392
 H2 0.285153 0.943278 0.81529  0.0702000980392
 H2 0.78489 0.443276 0.31534  0.0702000980392
 H2 0.784875 0.443276 0.81534  0.0702000980392
 H2 0.785118 0.944032 0.31542  0.0702000980392
 H2 0.785545 0.943277 0.81543  0.0702000980392
 H1 0.006039 0.052792 0.13704  0.282726764706
 H1 0.006056 0.052856 0.63699  0.282726764706
 H1 0.005852 0.552874 0.13718  0.282726764706
 H1 0.005857 0.552854 0.63719  0.282726764706
 H1 0.506162 0.052844 0.13719  0.282726764706
 H1 0.506176 0.052873 0.63717  0.282726764706
 H1 0.50608 0.552863 0.13721  0.282726764706
 H1 0.506082 0.552877 0.63724  0.282726764706
 H2 0.329572 0.443371 0.09716  0.0702000980392
 H2 0.329585 0.443382 0.59716  0.0702000980392
 H2 0.329642 0.943383 0.09714  0.0702000980392
 H2 0.329676 0.943375 0.59716  0.0702000980392
 H2 0.829352 0.443378 0.09719  0.0702000980392
 H2 0.829355 0.443361 0.59719  0.0702000980392
 H2 0.829495 0.943344 0.09713  0.0702000980392
 H2 0.829537 0.943365 0.59714  0.0702000980392
 H2 0.39824 0.057004 0.22740  0.0702000980392
 H2 0.398263 0.057014 0.7274  0.0702000980392
 H2 0.398148 0.557018 0.22742  0.0702000980392
 H2 0.398136 0.557017 0.7274  0.0702000980392
 H2 0.898282 0.057091 0.22729  0.0702000980392
 H2 0.898402 0.057004 0.72735  0.0702000980392
 H2 0.897977 0.557016 0.22744  0.0702000980392
 H2 0.897968 0.557014 0.72744  0.0702000980392
 H2 0.2152 0.44327 0.18460  0.0702000980392
 H2 0.215193 0.443266 0.68459  0.0702000980392
 H2 0.215294 0.94327 0.18458  0.0702000980392
 H2 0.21532 0.943275 0.68459  0.0702000980392
 H2 0.715032 0.443265 0.18464  0.0702000980392
 H2 0.715022 0.443264 0.68464  0.0702000980392
 H2 0.715161 0.94352 0.18472  0.0702000980392
 H2 0.715428 0.943256 0.68477  0.0702000980392
 H1 0.005838 0.447127 0.13718  0.282726764706
 H1 0.005844 0.447108 0.6372  0.282726764706
 H1 0.005982 0.947055 0.1370  0.282726764706
 H1 0.006048 0.94712 0.63699  0.282726764706
 H1 0.506067 0.447121 0.1372  0.282726764706
 H1 0.506068 0.447135 0.63723  0.282726764706
 H1 0.506132 0.947113 0.13718  0.282726764706
 H1 0.506173 0.947141 0.63720  0.282726764706
 H2 0.329659 0.056609 0.0971  0.0702000980392
 H2 0.329674 0.0566 0.59714  0.0702000980392
 H2 0.329588 0.556613 0.09714  0.0702000980392
 H2 0.329584 0.556624 0.59714  0.0702000980392
 H2 0.829532 0.056569 0.09703  0.0702000980392
 H2 0.829534 0.056591 0.59712  0.0702000980392
 H2 0.829356 0.556619 0.09717  0.0702000980392
 H2 0.829371 0.556601 0.59717  0.0702000980392
 H2 0.398135 0.443001 0.22744  0.0702000980392
 H2 0.398126 0.443 0.72744  0.0702000980392
 H2 0.398226 0.943002 0.22742  0.0702000980392
 H2 0.398255 0.943009 0.72744  0.0702000980392
 H2 0.897966 0.443 0.22746  0.0702000980392
 H2 0.897954 0.442998 0.72747  0.0702000980392
 H2 0.898064 0.943089 0.22740  0.0702000980392
 H2 0.898399 0.943003 0.72738  0.0702000980392
 H2 0.215307 0.056736 0.18456  0.0702000980392
 H2 0.215333 0.056742 0.68457  0.0702000980392
 H2 0.215217 0.556754 0.18458  0.0702000980392
 H2 0.215206 0.556749 0.68458  0.0702000980392
 H2 0.715306 0.056991 0.18440  0.0702000980392
 H2 0.715435 0.05673 0.68474  0.0702000980392
 H2 0.715047 0.556754 0.1846  0.0702000980392
 H2 0.71504 0.556753 0.68462  0.0702000980392
 H1 0.494102 0.447176 0.3628  0.282726764706
 H1 0.494081 0.447149 0.8628  0.282726764706
 H1 0.494908 0.947318 0.36283  0.282726764706
 H1 0.494734 0.947166 0.86289  0.282726764706
 H1 0.994333 0.447148 0.36289  0.282726764706
 H1 0.99432 0.447155 0.86289  0.282726764706
 H1 0.994361 0.947159 0.36277  0.282726764706
 H1 0.994369 0.947155 0.86278  0.282726764706
 H2 0.170873 0.056643 0.40270  0.0702000980392
 H2 0.170883 0.056632 0.90271  0.0702000980392
 H2 0.170862 0.55664 0.40275  0.0702000980392
 H2 0.170851 0.556649 0.90274  0.0702000980392
 H2 0.670268 0.058242 0.4024  0.0702000980392
 H2 0.671233 0.056645 0.90297  0.0702000980392
 H2 0.67064 0.556664 0.40277  0.0702000980392
 H2 0.670605 0.556645 0.90277  0.0702000980392
 H2 0.102122 0.443009 0.27251  0.0702000980392
 H2 0.10211 0.443006 0.77251  0.0702000980392
 H2 0.102218 0.943008 0.27246  0.0702000980392
 H2 0.102219 0.943014 0.77246  0.0702000980392
 H2 0.601951 0.44301 0.27253  0.0702000980392
 H2 0.601937 0.443008 0.77252  0.0702000980392
 H2 0.60224 0.943705 0.27268  0.0702000980392
 H2 0.602594 0.943008 0.77273  0.0702000980392
 H2 0.285151 0.056758 0.31526  0.0702000980392
 H2 0.285167 0.056748 0.8152  0.0702000980392
 H2 0.285075 0.556758 0.31528  0.0702000980392
 H2 0.285064 0.556755 0.81528  0.0702000980392
 H2 0.78521 0.057498 0.31508  0.0702000980392
 H2 0.785557 0.056746 0.8154  0.0702000980392
 H2 0.784908 0.556756 0.31532  0.0702000980392
 H2 0.78489 0.556755 0.81532  0.0702000980392
 C1 0.330931 0.334369 0.47703  0.115259264706
 C1 0.330775 0.334334 0.97700  0.115259264706
 C1 0.330896 0.834378 0.47702  0.115259264706
 C1 0.330948 0.834354 0.97702  0.115259264706
 C1 0.831446 0.334354 0.47699  0.115259264706
 C1 0.831473 0.334354 0.97698  0.115259264706
 C1 0.831479 0.834346 0.47687  0.115259264706
 C1 0.831484 0.834306 0.97699  0.115259264706
 C1 0.16915 0.334277 0.02303  0.115259264706
 C1 0.169301 0.334292 0.52307  0.115259264706
 C1 0.1693 0.834315 0.02304  0.115259264706
 C1 0.169208 0.834329 0.5230  0.115259264706
 C1 0.66987 0.334308 0.02303  0.115259264706
 C1 0.669852 0.334341 0.52306  0.115259264706
 C1 0.6699 0.834313 0.02309  0.115259264706
 C1 0.669917 0.834387 0.52291  0.115259264706
 C1 0.169216 0.165656 0.02306  0.115259264706
 C1 0.169352 0.165682 0.52308  0.115259264706
 C1 0.169297 0.665718 0.02308  0.115259264706
 C1 0.169244 0.665717 0.52307  0.115259264706
 C1 0.669947 0.165694 0.02312  0.115259264706
 C1 0.669922 0.165727 0.52320  0.115259264706
 C1 0.66987 0.665681 0.02307  0.115259264706
 C1 0.669921 0.665732 0.52307  0.115259264706
 C1 0.330968 0.165715 0.47704  0.115259264706
 C1 0.330863 0.165684 0.97704  0.115259264706
 C1 0.330874 0.66572 0.47704  0.115259264706
 C1 0.330919 0.665685 0.97704  0.115259264706
 C1 0.831514 0.165746 0.47705  0.115259264706
 C1 0.83155 0.165718 0.97703  0.115259264706
 C1 0.831552 0.665693 0.4770  0.115259264706
 C1 0.831475 0.665688 0.97702  0.115259264706
 C2 0.133645 2e-05 0.375  0.0598817647059
 C2 0.133656 1e-05 0.87561  0.0598817647059
 C2 0.133616 0.500019 0.37566  0.0598817647059
 C2 0.133602 0.500027 0.87565  0.0598817647059
 C2 0.633682 0.001185 0.37564  0.0598817647059
 C2 0.63403 2.1e-05 0.87586  0.0598817647059
 C2 0.633406 0.500041 0.37567  0.0598817647059
 C2 0.633384 0.500021 0.87566  0.0598817647059
 C3 0.141028 6e-06 0.2986  -0.145560735294
 C3 0.141034 8e-06 0.798  -0.145560735294
 C3 0.140948 0.500018 0.29873  -0.145560735294
 C3 0.140936 0.500017 0.79873  -0.145560735294
 C3 0.641038 0.000818 0.29872  -0.145560735294
 C3 0.641421 6e-06 0.79895  -0.145560735294
 C3 0.640772 0.500023 0.2987  -0.145560735294
 C3 0.640756 0.500018 0.79875  -0.145560735294
 C3 0.246753 7e-06 0.28850  -0.145560735294
 C3 0.246762 4e-06 0.78851  -0.145560735294
 C3 0.246664 0.500015 0.28852  -0.145560735294
 C3 0.246652 0.500012 0.78852  -0.145560735294
 C3 0.746746 0.000678 0.28849  -0.145560735294
 C3 0.74711 1e-06 0.78868  -0.145560735294
 C3 0.746496 0.500015 0.28856  -0.145560735294
 C3 0.74648 0.500015 0.78856  -0.145560735294
 C2 0.366855 0.999988 0.12425  0.0598817647059
 C2 0.366883 0.999987 0.62427  0.0598817647059
 C2 0.366779 0.499994 0.12428  0.0598817647059
 C2 0.36678 0.500006 0.62428  0.0598817647059
 C2 0.866734 0.999973 0.12419  0.0598817647059
 C2 0.866789 0.999977 0.62422  0.0598817647059
 C2 0.866573 0.500002 0.12429  0.0598817647059
 C2 0.866577 0.499985 0.62430  0.0598817647059
 C3 0.359434 0.999993 0.20116  -0.145560735294
 C3 0.359463 0.999999 0.70118  -0.145560735294
 C3 0.359344 0.500007 0.20118  -0.145560735294
 C3 0.359336 0.500008 0.70118  -0.145560735294
 C3 0.859358 0.0001 0.2011  -0.145560735294
 C3 0.859545 0.99999 0.70116  -0.145560735294
 C3 0.859169 0.500007 0.20120  -0.145560735294
 C3 0.859161 0.500002 0.70121  -0.145560735294
 C3 0.253704 0.999998 0.21134  -0.145560735294
 C3 0.253727 2e-06 0.71135  -0.145560735294
 C3 0.25361 0.500012 0.21136  -0.145560735294
 C3 0.2536 0.500009 0.71136  -0.145560735294
 C3 0.753645 0.00031 0.21132  -0.145560735294
 C3 0.753885 0.999991 0.71148  -0.145560735294
 C3 0.753442 0.50001 0.21140  -0.145560735294
 C3 0.753432 0.500009 0.71140  -0.145560735294
 N1 0.381908 0.389132 0.46317  -0.436308235294
 N1 0.381799 0.389085 0.96319  -0.436308235294
 N1 0.381941 0.889116 0.46321  -0.436308235294
 N1 0.381958 0.889103 0.96318  -0.436308235294
 N1 0.882167 0.389151 0.46285  -0.436308235294
 N1 0.882161 0.389172 0.96284  -0.436308235294
 N1 0.882123 0.889172 0.46268  -0.436308235294
 N1 0.882194 0.889092 0.96282  -0.436308235294
 N1 0.118294 0.389024 0.03704  -0.436308235294
 N1 0.118389 0.389014 0.5370  -0.436308235294
 N1 0.118392 0.889046 0.03701  -0.436308235294
 N1 0.118306 0.889063 0.53699  -0.436308235294
 N1 0.618685 0.388987 0.03673  -0.436308235294
 N1 0.618699 0.389042 0.53676  -0.436308235294
 N1 0.618766 0.889007 0.03683  -0.436308235294
 N1 0.618783 0.889137 0.53656  -0.436308235294
 N1 0.118381 0.110884 0.03709  -0.436308235294
 N1 0.11846 0.110919 0.53705  -0.436308235294
 N1 0.118398 0.610978 0.03707  -0.436308235294
 N1 0.118395 0.610953 0.53709  -0.436308235294
 N1 0.618803 0.111001 0.03687  -0.436308235294
 N1 0.618777 0.111059 0.53700  -0.436308235294
 N1 0.618712 0.610974 0.03678  -0.436308235294
 N1 0.618752 0.611043 0.53680  -0.436308235294
 N1 0.381957 0.110976 0.46319  -0.436308235294
 N1 0.381943 0.110977 0.96325  -0.436308235294
 N1 0.381888 0.61098 0.46323  -0.436308235294
 N1 0.381898 0.61093 0.96320  -0.436308235294
 N1 0.882262 0.110995 0.46290  -0.436308235294
 N1 0.882265 0.110933 0.96290  -0.436308235294
 N1 0.882261 0.610885 0.4629  -0.436308235294
 N1 0.882198 0.610901 0.96290  -0.436308235294
 N2 0.031683 2.9e-05 0.38624  -0.606218235294
 N2 0.0317 8e-06 0.88627  -0.606218235294
 N2 0.031684 0.500017 0.38636  -0.606218235294
 N2 0.031668 0.500033 0.88635  -0.606218235294
 N2 0.53171 0.000437 0.38630  -0.606218235294
 N2 0.532008 2.7e-05 0.88643  -0.606218235294
 N2 0.531443 0.500057 0.38634  -0.606218235294
 N2 0.531418 0.500016 0.88633  -0.606218235294
 N2 0.468861 0.999983 0.11365  -0.606218235294
 N2 0.468883 0.999992 0.61365  -0.606218235294
 N2 0.46879 0.499988 0.11368  -0.606218235294
 N2 0.468795 0.500015 0.61369  -0.606218235294
 N2 0.968703 0.999925 0.11355  -0.606218235294
 N2 0.968724 0.999983 0.6135  -0.606218235294
 N2 0.968554 0.500005 0.11366  -0.606218235294
 N2 0.968564 0.499976 0.61367  -0.606218235294
