#======================================================================

# CRYSTAL DATA

#----------------------------------------------------------------------

data_VESTA_phase_1


_pd_phase_name                         MOF
_cell_length_a                         21.02800
_cell_length_b                         18.14000
_cell_length_c                         18.13600
_cell_angle_alpha                      119.95300
_cell_angle_beta                       89.99800
_cell_angle_gamma                      89.99500
_symmetry_space_group_name_H-M         "P 1"
_symmetry_Int_Tables_number            1

loop_
_symmetry_equiv_pos_as_xyz
   "x, y, z"

loop_
   _atom_site_label
   _atom_site_fract_x
   _atom_site_fract_y
   _atom_site_fract_z
 _atom_site_charge
 Zn1 0.277847 0.550603 0.07570  0.746482083333
 Zn1 0.77786 0.55052 0.075  0.746482083333
 Zn1 0.111197 0.525314 0.44960  0.746482083333
 Zn1 0.611193 0.52526 0.44951  0.746482083333
 Zn1 0.444527 0.924359 0.47506  0.746482083333
 Zn1 0.944518 0.924334 0.47511  0.746482083333
 Zn1 0.027853 0.449226 0.92431  0.746482083333
 Zn1 0.527853 0.449382 0.92426  0.746482083333
 Zn1 0.361194 0.474711 0.55044  0.746482083333
 Zn1 0.861187 0.47459 0.55034  0.746482083333
 Zn1 0.194514 0.075578 0.52495  0.746482083333
 Zn1 0.694521 0.075534 0.52476  0.746482083333
 H1 0.346051 0.375017 0.79549  0.100008869048
 H1 0.846054 0.374901 0.79544  0.100008869048
 H1 0.281903 0.374373 0.73148  0.100008869048
 H1 0.781912 0.374298 0.73145  0.100008869048
 H1 0.306258 0.278198 0.72595  0.100008869048
 H1 0.806224 0.27811 0.72592  0.100008869048
 H1 0.207713 0.326332 0.8061  0.100008869048
 H1 0.707692 0.326325 0.80613  0.100008869048
 H1 0.284121 0.252221 0.84970  0.100008869048
 H1 0.784071 0.252147 0.84966  0.100008869048
 H1 0.238159 0.325899 0.93788  0.100008869048
 H1 0.738099 0.325821 0.93783  0.100008869048
 H1 0.317569 0.350921 0.92835  0.100008869048
 H1 0.817522 0.350826 0.92834  0.100008869048
 H1 0.213218 0.474161 0.85062  0.100008869048
 H1 0.713297 0.474149 0.85059  0.100008869048
 H1 0.329427 0.627007 0.9808  0.100008869048
 H1 0.829586 0.626855 0.98076  0.100008869048
 H1 0.247044 0.623414 0.95623  0.100008869048
 H1 0.747196 0.623401 0.95626  0.100008869048
 H1 0.408243 0.53646 0.85444  0.100008869048
 H1 0.908281 0.536104 0.85424  0.100008869048
 H1 0.215981 0.594074 0.81372  0.100008869048
 H1 0.71609 0.594196 0.8138  0.100008869048
 H1 0.247814 0.549712 0.66455  0.100008869048
 H1 0.747854 0.549807 0.66460  0.100008869048
 H1 0.431488 0.495246 0.70442  0.100008869048
 H1 0.931457 0.494871 0.70421  0.100008869048
 H2 0.328284 0.479169 0.92819  0.265555416667
 H2 0.828325 0.479058 0.92819  0.265555416667
 H1 0.179549 0.420311 0.62489  0.100008869048
 H1 0.679591 0.420262 0.62475  0.100008869048
 H1 0.115539 0.356698 0.62538  0.100008869048
 H1 0.615582 0.356687 0.62532  0.100008869048
 H1 0.139707 0.447264 0.72165  0.100008869048
 H1 0.639801 0.447257 0.72155  0.100008869048
 H1 0.041086 0.479053 0.67339  0.100008869048
 H1 0.541154 0.479076 0.67337  0.100008869048
 H1 0.117216 0.596877 0.74773  0.100008869048
 H1 0.617313 0.596874 0.74762  0.100008869048
 H1 0.071233 0.611369 0.67400  0.100008869048
 H1 0.571313 0.611351 0.67389  0.100008869048
 H1 0.150722 0.577176 0.64910  0.100008869048
 H1 0.650789 0.577109 0.64895  0.100008869048
 H1 0.046804 0.376035 0.52553  0.100008869048
 H1 0.546787 0.376023 0.52551  0.100008869048
 H1 0.163072 0.354033 0.3728  0.100008869048
 H1 0.66294 0.353965 0.37271  0.100008869048
 H1 0.080675 0.332962 0.37622  0.100008869048
 H1 0.580549 0.332942 0.37617  0.100008869048
 H1 0.241692 0.317947 0.46350  0.100008869048
 H1 0.741667 0.317779 0.46313  0.100008869048
 H1 0.049484 0.219616 0.40534  0.100008869048
 H1 0.549386 0.219654 0.40539  0.100008869048
 H1 0.081188 0.114713 0.4496  0.100008869048
 H1 0.581145 0.11473 0.44969  0.100008869048
 H1 0.264811 0.209049 0.50466  0.100008869048
 H1 0.764839 0.20886 0.50424  0.100008869048
 H2 0.161736 0.448902 0.52073  0.265555416667
 H2 0.661725 0.448792 0.52058  0.265555416667
 H1 0.012743 0.204247 0.57915  0.100008869048
 H1 0.51271 0.204357 0.57905  0.100008869048
 H1 0.4486 0.268408 0.6424  0.100008869048
 H1 0.948633 0.268337 0.64245  0.100008869048
 H1 0.472878 0.273888 0.5516  0.100008869048
 H1 0.972999 0.273796 0.55174  0.100008869048
 H1 0.374328 0.193777 0.51989  0.100008869048
 H1 0.874413 0.19374 0.51986  0.100008869048
 H1 0.450647 0.150127 0.40216  0.100008869048
 H1 0.950804 0.150016 0.40219  0.100008869048
 H1 0.404677 0.062022 0.38791  0.100008869048
 H1 0.904793 0.061937 0.38792  0.100008869048
 H1 0.484117 0.071488 0.42233  0.100008869048
 H1 0.984209 0.071394 0.42243  0.100008869048
 H1 0.379912 0.14937 0.62338  0.100008869048
 H1 0.879863 0.149354 0.62338  0.100008869048
 H1 0.496237 0.019252 0.64621  0.100008869048
 H1 0.996057 0.019119 0.64629  0.100008869048
 H1 0.413844 0.04377 0.66722  0.100008869048
 H1 0.913673 0.043752 0.66725  0.100008869048
 H1 0.074875 0.145551 0.68200  0.100008869048
 H1 0.574912 0.145811 0.68179  0.100008869048
 H1 0.382757 0.186082 0.78038  0.100008869048
 H1 0.882631 0.186126 0.7803  0.100008869048
 H1 0.414532 0.335156 0.88522  0.100008869048
 H1 0.914479 0.335163 0.88517  0.100008869048
 H1 0.098145 0.295409 0.79085  0.100008869048
 H1 0.598109 0.295701 0.79063  0.100008869048
 H2 0.494968 0.071812 0.55087  0.265555416667
 H2 0.994941 0.071783 0.55100  0.265555416667
 H1 0.09612 0.624765 0.20442  0.100008869048
 H1 0.596009 0.624993 0.20455  0.100008869048
 H1 0.032015 0.625423 0.26850  0.100008869048
 H1 0.531836 0.625604 0.26852  0.100008869048
 H1 0.056346 0.721593 0.27401  0.100008869048
 H1 0.55617 0.721795 0.2740  0.100008869048
 H1 0.457668 0.673645 0.19382  0.100008869048
 H1 0.957768 0.673498 0.19392  0.100008869048
 H1 0.034141 0.7476 0.15031  0.100008869048
 H1 0.534093 0.747775 0.15032  0.100008869048
 H1 0.488155 0.674111 0.06212  0.100008869048
 H1 0.988138 0.673973 0.06218  0.100008869048
 H1 0.067551 0.648888 0.07160  0.100008869048
 H1 0.567566 0.649081 0.07166  0.100008869048
 H1 0.463234 0.52581 0.14935  0.100008869048
 H1 0.963305 0.525664 0.1494  0.100008869048
 H1 0.079552 0.37286 0.01916  0.100008869048
 H1 0.579492 0.373007 0.01914  0.100008869048
 H1 0.997169 0.376373 0.04374  0.100008869048
 H1 0.497101 0.376562 0.04372  0.100008869048
 H1 0.158318 0.463441 0.14557  0.100008869048
 H1 0.658226 0.463685 0.14559  0.100008869048
 H1 0.466034 0.405769 0.18619  0.100008869048
 H1 0.966083 0.405757 0.18626  0.100008869048
 H1 0.997869 0.450232 0.33547  0.100008869048
 H1 0.497841 0.450137 0.33537  0.100008869048
 H1 0.181523 0.504758 0.29561  0.100008869048
 H1 0.681449 0.5049 0.29560  0.100008869048
 H2 0.078323 0.520664 0.07176  0.265555416667
 H2 0.57829 0.520827 0.07176  0.265555416667
 H1 0.429612 0.579707 0.37518  0.100008869048
 H1 0.929553 0.579635 0.37504  0.100008869048
 H1 0.365615 0.643343 0.37468  0.100008869048
 H1 0.865523 0.643234 0.37455  0.100008869048
 H1 0.389812 0.552776 0.27841  0.100008869048
 H1 0.889718 0.552672 0.27828  0.100008869048
 H1 0.291159 0.521 0.32662  0.100008869048
 H1 0.791114 0.520842 0.32652  0.100008869048
 H1 0.367304 0.403169 0.25228  0.100008869048
 H1 0.867293 0.403056 0.2522  0.100008869048
 H1 0.321299 0.38866 0.3259  0.100008869048
 H1 0.821316 0.388545 0.32593  0.100008869048
 H1 0.40078 0.422847 0.3509  0.100008869048
 H1 0.900791 0.422783 0.35084  0.100008869048
 H1 0.296815 0.623979 0.47448  0.100008869048
 H1 0.796778 0.623882 0.47439  0.100008869048
 H1 0.413028 0.645957 0.62717  0.100008869048
 H1 0.91297 0.645867 0.62710  0.100008869048
 H1 0.330636 0.667051 0.62379  0.100008869048
 H1 0.830577 0.666927 0.62370  0.100008869048
 H1 0.491727 0.682104 0.53669  0.100008869048
 H1 0.99164 0.68194 0.53652  0.100008869048
 H1 0.299464 0.78034 0.59458  0.100008869048
 H1 0.799429 0.780327 0.59464  0.100008869048
 H1 0.331202 0.885225 0.55023  0.100008869048
 H1 0.831174 0.885253 0.55034  0.100008869048
 H1 0.014798 0.790863 0.4954  0.100008869048
 H1 0.514881 0.79099 0.49554  0.100008869048
 H2 0.411751 0.551112 0.47932  0.265555416667
 H2 0.911719 0.551042 0.47924  0.265555416667
 H1 0.262728 0.795557 0.42088  0.100008869048
 H1 0.762851 0.795703 0.42084  0.100008869048
 H1 0.198615 0.731538 0.35754  0.100008869048
 H1 0.698799 0.731561 0.35746  0.100008869048
 H1 0.222911 0.726012 0.44824  0.100008869048
 H1 0.723105 0.726122 0.44820  0.100008869048
 H1 0.124362 0.806155 0.48012  0.100008869048
 H1 0.624472 0.806095 0.47995  0.100008869048
 H1 0.200721 0.849755 0.59778  0.100008869048
 H1 0.700765 0.849853 0.59771  0.100008869048
 H1 0.154736 0.937883 0.61210  0.100008869048
 H1 0.654733 0.937913 0.61194  0.100008869048
 H1 0.234164 0.928401 0.57761  0.100008869048
 H1 0.734174 0.928507 0.5775  0.100008869048
 H1 0.129894 0.850572 0.37663  0.100008869048
 H1 0.629966 0.850495 0.37646  0.100008869048
 H1 0.246146 0.980723 0.35377  0.100008869048
 H1 0.746188 0.980712 0.35361  0.100008869048
 H1 0.163755 0.956194 0.3328  0.100008869048
 H1 0.663802 0.956159 0.33263  0.100008869048
 H1 0.324867 0.854177 0.31813  0.100008869048
 H1 0.824962 0.854222 0.31788  0.100008869048
 H1 0.132682 0.813874 0.21968  0.100008869048
 H1 0.632713 0.813783 0.21962  0.100008869048
 H1 0.164479 0.664799 0.11483  0.100008869048
 H1 0.66451 0.664688 0.11483  0.100008869048
 H1 0.348086 0.704287 0.2092  0.100008869048
 H1 0.848176 0.70431 0.20910  0.100008869048
 H2 0.244954 0.92811 0.44908  0.265555416667
 H2 0.744993 0.928116 0.4489  0.265555416667
 C1 0.299344 0.346624 0.76947  -0.35685875
 C1 0.799336 0.34654 0.76944  -0.35685875
 C2 0.251645 0.359477 0.83864  0.0953454166667
 C2 0.751636 0.359432 0.83862  0.0953454166667
 C1 0.274332 0.320255 0.89166  -0.35685875
 C1 0.77429 0.320182 0.89163  -0.35685875
 C3 0.231869 0.453515 0.89427  -0.09595125
 C3 0.731905 0.45349 0.89425  -0.09595125
 C4 0.292002 0.587892 0.93599  -0.02787125
 C4 0.792119 0.587802 0.93596  -0.02787125
 C5 0.309136 0.567541 0.84692  0.120115416667
 C5 0.809213 0.567424 0.84687  0.120115416667
 C6 0.370528 0.540092 0.81501  -0.20585125
 C6 0.870566 0.53983 0.81487  -0.20585125
 C6 0.264361 0.572242 0.79234  -0.20585125
 C6 0.76444 0.572252 0.79235  -0.20585125
 C7 0.281437 0.547836 0.70915  0.17237875
 C7 0.78148 0.547836 0.7091  0.17237875
 C7 0.384277 0.516634 0.73123  0.17237875
 C7 0.884277 0.51637 0.7310  0.17237875
 C8 0.174948 0.463487 0.95215  0.65069875
 C8 0.674957 0.463521 0.95211  0.65069875
 C1 0.132839 0.422456 0.6532  -0.35685875
 C1 0.632893 0.422437 0.65311  -0.35685875
 C2 0.085022 0.478645 0.64034  0.0953454166667
 C2 0.58507 0.478635 0.6402  0.0953454166667
 C1 0.107498 0.570915 0.6796  -0.35685875
 C1 0.607572 0.57089 0.67956  -0.35685875
 C3 0.06533 0.440357 0.54625  -0.09595125
 C3 0.565324 0.44033 0.54620  -0.09595125
 C4 0.12557 0.348178 0.41187  -0.02787125
 C4 0.625476 0.348126 0.41175  -0.02787125
 C5 0.142622 0.279365 0.43215  0.120115416667
 C5 0.642558 0.279296 0.43199  0.120115416667
 C6 0.203959 0.274872 0.45975  -0.20585125
 C6 0.703931 0.27474 0.45945  -0.20585125
 C6 0.097827 0.220044 0.42728  -0.20585125
 C6 0.597757 0.220029 0.4272  -0.20585125
 C7 0.114836 0.161192 0.45166  0.17237875
 C7 0.614795 0.161169 0.45158  0.17237875
 C7 0.217643 0.214489 0.48316  0.17237875
 C7 0.717644 0.214348 0.48284  0.17237875
 C8 0.008314 0.488117 0.53627  0.65069875
 C8 0.508317 0.48814 0.53627  0.65069875
 C1 0.465997 0.230404 0.57669  -0.35685875
 C1 0.966057 0.230317 0.57675  -0.35685875
 C2 0.418271 0.161274 0.52055  0.0953454166667
 C2 0.918326 0.161211 0.52057  0.0953454166667
 C1 0.440882 0.108201 0.42834  -0.35685875
 C1 0.94099 0.108113 0.42839  -0.35685875
 C3 0.39854 0.105712 0.55914  -0.09595125
 C3 0.898521 0.105677 0.55916  -0.09595125
 C4 0.458768 0.064047 0.65188  -0.02787125
 C4 0.958641 0.06397 0.65194  -0.02787125
 C5 0.475858 0.153103 0.72051  0.120115416667
 C5 0.975776 0.152996 0.72059  0.120115416667
 C6 0.037159 0.184924 0.72505  -0.20585125
 C6 0.537201 0.185128 0.72489  -0.20585125
 C6 0.431098 0.207549 0.77987  -0.20585125
 C6 0.931008 0.207518 0.77987  -0.20585125
 C7 0.448153 0.290677 0.83870  0.17237875
 C7 0.948101 0.290625 0.8387  0.17237875
 C7 0.05093 0.268609 0.78542  0.17237875
 C7 0.55093 0.268827 0.78526  0.17237875
 C8 0.341612 0.047829 0.51139  0.65069875
 C8 0.841612 0.047794 0.51134  0.65069875
 C1 0.04942 0.653173 0.23049  -0.35685875
 C1 0.549288 0.653368 0.2305  -0.35685875
 C2 0.501619 0.640517 0.16135  0.0953454166667
 C2 0.0 0.64034 0.16137  0.0953454166667
 C1 0.024333 0.679575 0.1083  -0.35685875
 C1 0.524317 0.679744 0.10834  -0.35685875
 C3 0.481872 0.546477 0.10571  -0.09595125
 C3 0.981918 0.546301 0.10576  -0.09595125
 C4 0.042101 0.411938 0.06399  -0.02787125
 C4 0.542044 0.412101 0.06397  -0.02787125
 C5 0.059225 0.432314 0.15307  0.120115416667
 C5 0.559155 0.432457 0.15305  0.120115416667
 C6 0.120602 0.459809 0.18500  -0.20585125
 C6 0.62052 0.459998 0.18500  -0.20585125
 C6 0.014444 0.427622 0.20765  -0.20585125
 C6 0.514392 0.427674 0.20760  -0.20585125
 C7 0.031497 0.45209 0.2908  0.17237875
 C7 0.531457 0.452069 0.29079  0.17237875
 C7 0.134327 0.483325 0.26879  0.17237875
 C7 0.634258 0.483442 0.26877  0.17237875
 C8 0.424939 0.536455 0.04784  0.65069875
 C8 0.924971 0.53634 0.04792  0.65069875
 C1 0.382914 0.577579 0.34685  -0.35685875
 C1 0.88284 0.577479 0.34673  -0.35685875
 C2 0.33508 0.521394 0.35969  0.0953454166667
 C2 0.835043 0.521272 0.35959  0.0953454166667
 C1 0.357565 0.42912 0.32034  -0.35685875
 C1 0.857563 0.429014 0.32026  -0.35685875
 C3 0.315353 0.559658 0.45376  -0.09595125
 C3 0.815313 0.55956 0.45367  -0.09595125
 C4 0.375548 0.651829 0.58817  -0.02787125
 C4 0.875495 0.651724 0.5880  -0.02787125
 C5 0.392627 0.720638 0.56790  0.120115416667
 C5 0.892566 0.720553 0.56785  0.120115416667
 C6 0.453991 0.725159 0.54039  -0.20585125
 C6 0.953915 0.725032 0.54027  -0.20585125
 C6 0.347826 0.77993 0.57270  -0.20585125
 C6 0.847781 0.779892 0.57271  -0.20585125
 C7 0.364853 0.83877 0.54832  0.17237875
 C7 0.864814 0.838759 0.54837  0.17237875
 C7 0.467693 0.785533 0.51698  0.17237875
 C7 0.967625 0.785431 0.51689  0.17237875
 C8 0.258337 0.511882 0.46371  0.65069875
 C8 0.758311 0.511779 0.46364  0.65069875
 C1 0.216016 0.769521 0.42325  -0.35685875
 C1 0.716164 0.769598 0.42318  -0.35685875
 C2 0.168291 0.838659 0.47943  0.0953454166667
 C2 0.668373 0.838666 0.47930  0.0953454166667
 C1 0.190934 0.891699 0.5716  -0.35685875
 C1 0.690965 0.89176 0.57151  -0.35685875
 C3 0.148527 0.894232 0.44087  -0.09595125
 C3 0.648577 0.894192 0.44070  -0.09595125
 C4 0.208699 0.935919 0.34812  -0.02787125
 C4 0.708745 0.935898 0.34795  -0.02787125
 C5 0.225799 0.846871 0.27947  0.120115416667
 C5 0.72586 0.84685 0.27932  0.120115416667
 C6 0.287155 0.814854 0.27505  -0.20585125
 C6 0.787235 0.814871 0.27485  -0.20585125
 C6 0.181036 0.792414 0.22015  -0.20585125
 C6 0.68108 0.79235 0.2200  -0.20585125
 C7 0.1981 0.709285 0.16132  0.17237875
 C7 0.698143 0.70921 0.16127  0.17237875
 C7 0.300896 0.731154 0.21469  0.17237875
 C7 0.800975 0.731155 0.21453  0.17237875
 C8 0.091606 0.952131 0.48866  0.65069875
 C8 0.591633 0.952056 0.48847  0.65069875
 Br1 0.291616 0.459214 0.1339  -0.521247916667
 Br1 0.791506 0.459079 0.13386  -0.521247916667
 Br1 0.124622 0.67479 0.54126  -0.521247916667
 Br1 0.624719 0.674735 0.54110  -0.521247916667
 Br1 0.458123 0.866093 0.32546  -0.521247916667
 Br1 0.958248 0.865968 0.32552  -0.521247916667
 Br1 0.04156 0.5406 0.86606  -0.521247916667
 Br1 0.541571 0.540769 0.86604  -0.521247916667
 Br1 0.374671 0.325237 0.45877  -0.521247916667
 Br1 0.874692 0.325115 0.45872  -0.521247916667
 Br1 0.208185 0.13387 0.67453  -0.521247916667
 Br1 0.708183 0.133886 0.67436  -0.521247916667
 N1 0.285153 0.510587 0.94443  -0.370277916667
 N1 0.785208 0.510513 0.94442  -0.370277916667
 N2 0.340296 0.519547 0.67817  -0.31523125
 N2 0.840299 0.519407 0.67809  -0.31523125
 N1 0.118624 0.433743 0.48927  -0.370277916667
 N1 0.618594 0.433686 0.48917  -0.370277916667
 N2 0.173647 0.158476 0.48007  -0.31523125
 N2 0.673642 0.158388 0.47986  -0.31523125
 N1 0.451856 0.05559 0.56613  -0.370277916667
 N1 0.951808 0.055545 0.56620  -0.370277916667
 N2 0.006956 0.321599 0.84140  -0.31523125
 N2 0.506965 0.321744 0.84131  -0.31523125
 N1 0.035198 0.489239 0.05555  -0.370277916667
 N1 0.535165 0.489407 0.05554  -0.370277916667
 N2 0.090339 0.480427 0.32185  -0.31523125
 N2 0.590286 0.480455 0.32180  -0.31523125
 N1 0.368629 0.56627 0.51076  -0.370277916667
 N1 0.868592 0.566171 0.51067  -0.370277916667
 N2 0.423688 0.841508 0.51998  -0.31523125
 N2 0.923636 0.84146 0.5199  -0.31523125
 N1 0.201831 0.944352 0.43386  -0.370277916667
 N1 0.701865 0.944334 0.43369  -0.370277916667
 N2 0.256929 0.678231 0.15866  -0.31523125
 N2 0.756987 0.678186 0.15858  -0.31523125
 O1 0.127939 0.415555 0.91505  -0.583539583333
 O1 0.62793 0.415635 0.91499  -0.583539583333
 O1 0.177587 0.518646 0.03130  -0.583539583333
 O1 0.677601 0.518642 0.03127  -0.583539583333
 O1 0.461275 0.498536 0.58405  -0.583539583333
 O1 0.961252 0.498454 0.58  -0.583539583333
 O1 0.010942 0.512528 0.48137  -0.583539583333
 O1 0.510941 0.512563 0.48138  -0.583539583333
 O1 0.294576 0.084922 0.50054  -0.583539583333
 O1 0.794603 0.084869 0.50040  -0.583539583333
 O1 0.344279 0.968696 0.4874  -0.583539583333
 O1 0.844276 0.968657 0.48739  -0.583539583333
 O1 0.377913 0.584366 0.08495  -0.583539583333
 O1 0.877946 0.584231 0.08508  -0.583539583333
 O1 0.427596 0.481323 0.96868  -0.583539583333
 O1 0.927617 0.481274 0.96874  -0.583539583333
 O1 0.211279 0.501554 0.41598  -0.583539583333
 O1 0.711274 0.501335 0.41584  -0.583539583333
 O1 0.260949 0.487489 0.51862  -0.583539583333
 O1 0.760941 0.487377 0.51854  -0.583539583333
 O1 0.044585 0.915065 0.49957  -0.583539583333
 O1 0.544618 0.914946 0.49933  -0.583539583333
 O1 0.094276 0.031265 0.51259  -0.583539583333
 O1 0.594293 0.031212 0.51249  -0.583539583333
