#======================================================================

# CRYSTAL DATA

#----------------------------------------------------------------------

data_VESTA_phase_1


_pd_phase_name                         MOF
_cell_length_a                         15.41100
_cell_length_b                         15.42000
_cell_length_c                         15.41100
_cell_angle_alpha                      60.01500
_cell_angle_beta                       60.03500
_cell_angle_gamma                      60.04800
_symmetry_space_group_name_H-M         "P 1"
_symmetry_Int_Tables_number            1

loop_
_symmetry_equiv_pos_as_xyz
   "x, y, z"

loop_
   _atom_site_label
   _atom_site_fract_x
   _atom_site_fract_y
   _atom_site_fract_z
 _atom_site_charge
 Zn1 0.154149 0.154248 0.53762  0.632232941176
 Zn1 0.154143 0.154191 0.15404  0.632232941176
 Zn1 0.53755 0.154275 0.15411  0.632232941176
 Zn1 0.154279 0.537391 0.15422  0.632232941176
 Zn1 0.845876 0.845752 0.46240  0.632232941176
 Zn1 0.845883 0.845807 0.84597  0.632232941176
 Zn1 0.845747 0.462608 0.84580  0.632232941176
 Zn1 0.462476 0.845723 0.84591  0.632232941176
 Zn2 0.250029 0.249989 0.25002  0.369672941176
 Zn2 0.749997 0.75001 0.75000  0.369672941176
 H1 0.999865 0.332818 0.66749  0.146632941176
 H1 0.332688 0.999918 0.99988  0.146632941176
 H1 0.667329 8e-05 0.00011  0.146632941176
 H1 0.000142 0.667181 0.33252  0.146632941176
 H1 2.3e-05 0.66714 0.00034  0.146632941176
 H1 0.332732 0.000124 0.66740  0.146632941176
 H1 0.667291 0.999869 0.33262  0.146632941176
 H1 0.999979 0.332866 0.99965  0.146632941176
 H1 0.000139 0.999798 0.33262  0.146632941176
 H1 0.332663 0.667161 0.00025  0.146632941176
 H1 0.667356 0.332845 0.99974  0.146632941176
 H1 0.999867 0.000195 0.66740  0.146632941176
 C1 0.053414 0.400033 0.49327  0.127962941176
 C1 0.400029 0.053384 0.05334  0.127962941176
 C1 0.493188 0.053419 0.05339  0.127962941176
 C1 0.053472 0.493121 0.40006  0.127962941176
 C1 0.053418 0.493083 0.05348  0.127962941176
 C1 0.400029 0.053505 0.49320  0.127962941176
 C1 0.493154 0.053418 0.40002  0.127962941176
 C1 0.053413 0.400018 0.05333  0.127962941176
 C1 0.053453 0.053351 0.40001  0.127962941176
 C1 0.400066 0.493101 0.05351  0.127962941176
 C1 0.493204 0.40004 0.05338  0.127962941176
 C1 0.05338 0.053452 0.49319  0.127962941176
 C1 0.599996 0.946494 0.50682  0.127962941176
 C1 0.946613 0.59998 0.94668  0.127962941176
 C1 0.946608 0.506916 0.94654  0.127962941176
 C1 0.506871 0.946582 0.59999  0.127962941176
 C1 0.506838 0.946577 0.94663  0.127962941176
 C1 0.946609 0.599966 0.50674  0.127962941176
 C1 0.946553 0.506878 0.59995  0.127962941176
 C1 0.599997 0.946615 0.9466  0.127962941176
 C1 0.946572 0.946649 0.60001  0.127962941176
 C1 0.506822 0.599959 0.9466  0.127962941176
 C1 0.599959 0.506897 0.94651  0.127962941176
 C1 0.946646 0.946548 0.50682  0.127962941176
 C2 0.999933 0.403471 0.59669  -0.188367058824
 C2 0.403404 0.999962 0.99993  -0.188367058824
 C2 0.596613 3.6e-05 6.3e-0  -0.188367058824
 C2 7.4e-05 0.596529 0.40332  -0.188367058824
 C2 0.999982 0.59651 0.00020  -0.188367058824
 C2 0.403432 6.8e-05 0.59665  -0.188367058824
 C2 0.596592 0.999925 0.40337  -0.188367058824
 C2 2e-05 0.403496 0.99979  -0.188367058824
 C2 9.4e-05 0.999873 0.40337  -0.188367058824
 C2 0.4034 0.596517 0.00014  -0.188367058824
 C2 0.596618 0.403489 0.99985  -0.188367058824
 C2 0.999912 0.00012 0.59665  -0.188367058824
 N1 0.113884 0.314544 0.45788  -0.229427058824
 N1 0.314531 0.11386 0.11376  -0.229427058824
 N1 0.457765 0.113913 0.11382  -0.229427058824
 N1 0.113969 0.457672 0.3145  -0.229427058824
 N1 0.113916 0.457589 0.11400  -0.229427058824
 N1 0.314506 0.114049 0.45775  -0.229427058824
 N1 0.457698 0.113936 0.31449  -0.229427058824
 N1 0.11392 0.314497 0.1137  -0.229427058824
 N1 0.113963 0.113809 0.31448  -0.229427058824
 N1 0.314567 0.457615 0.11405  -0.229427058824
 N1 0.457763 0.314529 0.11387  -0.229427058824
 N1 0.113851 0.113962 0.45775  -0.229427058824
 N1 0.685519 0.885951 0.54226  -0.229427058824
 N1 0.886106 0.685502 0.88624  -0.229427058824
 N1 0.88611 0.54241 0.88601  -0.229427058824
 N1 0.542328 0.886064 0.68552  -0.229427058824
 N1 0.542261 0.886085 0.88619  -0.229427058824
 N1 0.886142 0.685456 0.54213  -0.229427058824
 N1 0.886056 0.542327 0.68544  -0.229427058824
 N1 0.685495 0.886137 0.88626  -0.229427058824
 N1 0.886063 0.88619 0.68554  -0.229427058824
 N1 0.542263 0.685469 0.8861  -0.229427058824
 N1 0.685459 0.542383 0.88596  -0.229427058824
 N1 0.886175 0.886037 0.54226  -0.229427058824
 N2 0.14835 0.351716 0.35184  0.0511729411765
 N2 0.351762 0.148273 0.14819  0.0511729411765
 N2 0.148323 0.351637 0.14830  0.0511729411765
 N2 0.351698 0.148415 0.35171  0.0511729411765
 N2 0.148307 0.148297 0.35171  0.0511729411765
 N2 0.35176 0.351663 0.1483  0.0511729411765
 N2 0.648327 0.851584 0.64830  0.0511729411765
 N2 0.851703 0.648361 0.85171  0.0511729411765
 N2 0.648264 0.851726 0.85183  0.0511729411765
 N2 0.851675 0.648283 0.64818  0.0511729411765
 N2 0.851718 0.851702 0.64830  0.0511729411765
 N2 0.648266 0.648336 0.85164  0.0511729411765
 Cl1 0.097203 0.097122 0.7085  -0.434417058824
 Cl1 0.096807 0.097548 0.0970  -0.434417058824
 Cl1 0.708429 0.09761 0.09705  -0.434417058824
 Cl1 0.097524 0.708203 0.09683  -0.434417058824
 Cl1 0.902822 0.902878 0.29146  -0.434417058824
 Cl1 0.903219 0.902451 0.90298  -0.434417058824
 Cl1 0.902503 0.291796 0.90318  -0.434417058824
 Cl1 0.291597 0.902389 0.90297  -0.434417058824
