#======================================================================

# CRYSTAL DATA

#----------------------------------------------------------------------

data_VESTA_phase_1


_pd_phase_name                         MOF
_cell_length_a                         13.59200
_cell_length_b                         22.21200
_cell_length_c                         22.22200
_cell_angle_alpha                      72.16500
_cell_angle_beta                       90.01700
_cell_angle_gamma                      89.99700
_symmetry_space_group_name_H-M         "P 1"
_symmetry_Int_Tables_number            1

loop_
_symmetry_equiv_pos_as_xyz
   "x, y, z"

loop_
   _atom_site_label
   _atom_site_fract_x
   _atom_site_fract_y
   _atom_site_fract_z
 _atom_site_charge
 Zn1 0.445908 0.999974 0.25000  1.05653080645
 Zn1 0.445909 2.6e-05 0.75000  1.05653080645
 Zn1 0.445907 0.499965 0.24999  1.05653080645
 Zn1 0.445907 0.500008 0.74999  1.05653080645
 Zn1 0.945926 0.999974 0.25000  1.05653080645
 Zn1 0.945927 2.6e-05 0.75000  1.05653080645
 Zn1 0.945925 0.499965 0.24999  1.05653080645
 Zn1 0.945925 0.500008 0.74999  1.05653080645
 Zn1 0.05411 0.249985 0.99996  1.05653080645
 Zn1 0.054123 0.249976 0.49997  1.05653080645
 Zn1 0.054134 0.749963 0.50001  1.05653080645
 Zn1 0.054134 0.74996 0.  1.05653080645
 Zn1 0.554127 0.249985 0.99996  1.05653080645
 Zn1 0.55414 0.249976 0.49997  1.05653080645
 Zn1 0.554152 0.749963 0.50001  1.05653080645
 Zn1 0.554138 0.749966 2.9e-0  1.05653080645
 H1 0.31677 0.486178 0.06784  0.142873931452
 H1 0.316591 0.486174 0.56788  0.142873931452
 H1 0.31692 0.986137 0.06782  0.142873931452
 H1 0.316605 0.986131 0.56789  0.142873931452
 H1 0.816789 0.486178 0.06784  0.142873931452
 H1 0.81661 0.486174 0.56788  0.142873931452
 H1 0.81694 0.986137 0.06782  0.142873931452
 H1 0.816622 0.98613 0.56789  0.142873931452
 H1 0.200951 0.48656 0.10718  0.142873931452
 H1 0.200834 0.486583 0.6072  0.142873931452
 H1 0.201095 0.986785 0.10708  0.142873931452
 H1 0.200872 0.986739 0.60727  0.142873931452
 H1 0.700969 0.486559 0.10718  0.142873931452
 H1 0.700853 0.486583 0.60728  0.142873931452
 H1 0.701114 0.986785 0.10708  0.142873931452
 H1 0.700889 0.986739 0.60727  0.142873931452
 H1 0.201235 0.126448 0.21856  0.142873931452
 H1 0.201084 0.126587 0.71851  0.142873931452
 H1 0.201273 0.626393 0.21861  0.142873931452
 H1 0.201142 0.626519 0.71854  0.142873931452
 H1 0.701253 0.126447 0.21856  0.142873931452
 H1 0.701103 0.126586 0.71851  0.142873931452
 H1 0.701292 0.626392 0.21861  0.142873931452
 H1 0.70116 0.626519 0.71854  0.142873931452
 H1 0.130627 0.17576 0.15454  0.142873931452
 H1 0.130544 0.175857 0.65443  0.142873931452
 H1 0.130693 0.675733 0.15459  0.142873931452
 H1 0.130605 0.675811 0.65447  0.142873931452
 H1 0.630646 0.17576 0.15454  0.142873931452
 H1 0.630563 0.175857 0.65443  0.142873931452
 H1 0.630712 0.675733 0.15459  0.142873931452
 H1 0.630624 0.675811 0.65447  0.142873931452
 H2 0.309161 0.367935 0.12523  0.288028306452
 H2 0.308872 0.367913 0.62545  0.288028306452
 H2 0.308711 0.867926 0.12537  0.288028306452
 H2 0.308408 0.867882 0.62568  0.288028306452
 H2 0.809182 0.367935 0.12523  0.288028306452
 H2 0.808893 0.367913 0.62545  0.288028306452
 H2 0.808733 0.867926 0.12537  0.288028306452
 H2 0.808423 0.867881 0.62569  0.288028306452
 H2 0.27848 0.082178 0.13994  0.288028306452
 H2 0.278389 0.082207 0.63998  0.288028306452
 H2 0.2785 0.582143 0.13996  0.288028306452
 H2 0.278425 0.582169 0.63998  0.288028306452
 H2 0.778498 0.082178 0.13994  0.288028306452
 H2 0.778407 0.082207 0.63998  0.288028306452
 H2 0.778518 0.582143 0.13996  0.288028306452
 H2 0.778443 0.582169 0.63998  0.288028306452
 H1 0.316684 0.013804 0.43208  0.142873931452
 H1 0.316948 0.013808 0.93214  0.142873931452
 H1 0.316598 0.513783 0.43205  0.142873931452
 H1 0.316717 0.513773 0.93207  0.142873931452
 H1 0.816703 0.013804 0.43208  0.142873931452
 H1 0.816967 0.013808 0.93214  0.142873931452
 H1 0.816617 0.513783 0.43205  0.142873931452
 H1 0.816737 0.513773 0.93207  0.142873931452
 H1 0.200953 0.013146 0.392  0.142873931452
 H1 0.201134 0.013181 0.89284  0.142873931452
 H1 0.200869 0.513291 0.3926  0.142873931452
 H1 0.200929 0.513431 0.8926  0.142873931452
 H1 0.700972 0.013147 0.39270  0.142873931452
 H1 0.701152 0.013182 0.89284  0.142873931452
 H1 0.700888 0.513291 0.39262  0.142873931452
 H1 0.700948 0.513431 0.89267  0.142873931452
 H1 0.200978 0.373394 0.28142  0.142873931452
 H1 0.201106 0.373527 0.78137  0.142873931452
 H1 0.20095 0.873327 0.28148  0.142873931452
 H1 0.201102 0.873472 0.78143  0.142873931452
 H1 0.700997 0.373395 0.28142  0.142873931452
 H1 0.701124 0.373528 0.78137  0.142873931452
 H1 0.700969 0.873328 0.28148  0.142873931452
 H1 0.701121 0.873473 0.78143  0.142873931452
 H1 0.130577 0.324087 0.34553  0.142873931452
 H1 0.130667 0.324173 0.84543  0.142873931452
 H1 0.130519 0.824064 0.34560  0.142873931452
 H1 0.13061 0.824166 0.84549  0.142873931452
 H1 0.630596 0.324088 0.34553  0.142873931452
 H1 0.630686 0.324173 0.84543  0.142873931452
 H1 0.630538 0.824064 0.345  0.142873931452
 H1 0.630628 0.824167 0.84549  0.142873931452
 H2 0.308232 0.132058 0.37440  0.288028306452
 H2 0.308656 0.132033 0.87470  0.288028306452
 H2 0.308522 0.632056 0.37448  0.288028306452
 H2 0.309039 0.63204 0.87475  0.288028306452
 H2 0.808253 0.132058 0.37440  0.288028306452
 H2 0.808676 0.132033 0.87470  0.288028306452
 H2 0.808543 0.632056 0.37448  0.288028306452
 H2 0.809059 0.63204 0.87475  0.288028306452
 H2 0.278352 0.417771 0.35996  0.288028306452
 H2 0.278425 0.417814 0.85998  0.288028306452
 H2 0.278348 0.917736 0.35999  0.288028306452
 H2 0.278441 0.917778 0.8600  0.288028306452
 H2 0.77837 0.417771 0.35996  0.288028306452
 H2 0.778443 0.417815 0.85998  0.288028306452
 H2 0.778366 0.917736 0.35999  0.288028306452
 H2 0.778459 0.917778 0.8600  0.288028306452
 H1 0.183265 0.067739 0.4861  0.142873931452
 H1 0.183096 0.067714 0.98615  0.142873931452
 H1 0.18341 0.567752 0.48617  0.142873931452
 H1 0.183403 0.567753 0.98615  0.142873931452
 H1 0.683284 0.067739 0.4861  0.142873931452
 H1 0.683117 0.067714 0.98615  0.142873931452
 H1 0.68343 0.567752 0.48617  0.142873931452
 H1 0.683421 0.567753 0.98615  0.142873931452
 H1 0.299073 0.107138 0.48660  0.142873931452
 H1 0.298919 0.107023 0.98684  0.142873931452
 H1 0.299166 0.607198 0.48663  0.142873931452
 H1 0.29913 0.607169 0.98683  0.142873931452
 H1 0.799092 0.107138 0.48660  0.142873931452
 H1 0.798939 0.107024 0.98684  0.142873931452
 H1 0.799185 0.607199 0.48663  0.142873931452
 H1 0.799148 0.607169 0.98683  0.142873931452
 H1 0.298852 0.218596 0.12639  0.142873931452
 H1 0.298822 0.218637 0.62635  0.142873931452
 H1 0.299014 0.718526 0.12654  0.142873931452
 H1 0.298937 0.718573 0.62646  0.142873931452
 H1 0.79887 0.218595 0.12639  0.142873931452
 H1 0.798841 0.218637 0.62635  0.142873931452
 H1 0.799033 0.718525 0.12654  0.142873931452
 H1 0.798956 0.718573 0.62646  0.142873931452
 H1 0.369457 0.154573 0.17571  0.142873931452
 H1 0.369404 0.154618 0.67570  0.142873931452
 H1 0.369553 0.654442 0.17582  0.142873931452
 H1 0.369484 0.654513 0.67577  0.142873931452
 H1 0.869475 0.154572 0.17571  0.142873931452
 H1 0.869422 0.154617 0.67570  0.142873931452
 H1 0.869572 0.654441 0.17582  0.142873931452
 H1 0.869502 0.654513 0.67577  0.142873931452
 H2 0.190842 0.125242 0.36801  0.288028306452
 H2 0.1913 0.125356 0.86801  0.288028306452
 H2 0.191111 0.625426 0.36799  0.288028306452
 H2 0.19164 0.62565 0.86798  0.288028306452
 H2 0.690863 0.125243 0.36801  0.288028306452
 H2 0.69132 0.125357 0.86801  0.288028306452
 H2 0.691132 0.625427 0.36799  0.288028306452
 H2 0.69166 0.625651 0.86798  0.288028306452
 H2 0.221536 0.1399 0.08222  0.288028306452
 H2 0.221529 0.139908 0.5822  0.288028306452
 H2 0.221639 0.639917 0.08226  0.288028306452
 H2 0.221601 0.639908 0.58223  0.288028306452
 H2 0.721554 0.1399 0.08222  0.288028306452
 H2 0.721547 0.139908 0.5822  0.288028306452
 H2 0.721656 0.639917 0.08226  0.288028306452
 H2 0.721619 0.639908 0.58223  0.288028306452
 H1 0.183448 0.432141 0.01379  0.142873931452
 H1 0.183542 0.432107 0.51379  0.142873931452
 H1 0.183208 0.932172 0.01380  0.142873931452
 H1 0.183501 0.932098 0.51378  0.142873931452
 H1 0.683467 0.43214 0.01379  0.142873931452
 H1 0.683561 0.432107 0.51379  0.142873931452
 H1 0.683227 0.932172 0.01380  0.142873931452
 H1 0.683525 0.932097 0.51378  0.142873931452
 H1 0.299155 0.3927 0.01317  0.142873931452
 H1 0.299253 0.392623 0.51335  0.142873931452
 H1 0.299002 0.892811 0.01323  0.142873931452
 H1 0.299255 0.892617 0.51350  0.142873931452
 H1 0.799174 0.392699 0.01317  0.142873931452
 H1 0.799271 0.392622 0.5133  0.142873931452
 H1 0.79902 0.892811 0.01323  0.142873931452
 H1 0.799278 0.892613 0.51351  0.142873931452
 H1 0.299059 0.281394 0.37343  0.142873931452
 H1 0.2991 0.281451 0.87337  0.142873931452
 H1 0.29896 0.781335 0.37355  0.142873931452
 H1 0.298963 0.781384 0.87353  0.142873931452
 H1 0.799077 0.281394 0.37343  0.142873931452
 H1 0.799118 0.281451 0.87337  0.142873931452
 H1 0.798979 0.781336 0.37355  0.142873931452
 H1 0.798981 0.781384 0.87353  0.142873931452
 H1 0.369471 0.345503 0.32413  0.142873931452
 H1 0.36954 0.345568 0.82411  0.142873931452
 H1 0.369398 0.845404 0.32420  0.142873931452
 H1 0.369459 0.845443 0.8242  0.142873931452
 H1 0.869489 0.345504 0.32413  0.142873931452
 H1 0.869559 0.345568 0.82411  0.142873931452
 H1 0.869416 0.845405 0.32420  0.142873931452
 H1 0.869478 0.845444 0.8242  0.142873931452
 H2 0.191762 0.374318 0.13198  0.288028306452
 H2 0.191449 0.374394 0.63200  0.288028306452
 H2 0.191343 0.874601 0.13197  0.288028306452
 H2 0.19099 0.874621 0.63199  0.288028306452
 H2 0.691783 0.374316 0.13198  0.288028306452
 H2 0.69147 0.374393 0.63200  0.288028306452
 H2 0.691365 0.8746 0.13197  0.288028306452
 H2 0.691004 0.874622 0.63199  0.288028306452
 H2 0.221721 0.359993 0.41773  0.288028306452
 H2 0.221739 0.360017 0.91771  0.288028306452
 H2 0.221674 0.859992 0.41778  0.288028306452
 H2 0.221662 0.86003 0.91776  0.288028306452
 H2 0.721739 0.359992 0.41773  0.288028306452
 H2 0.721758 0.360017 0.91771  0.288028306452
 H2 0.721693 0.859992 0.41778  0.288028306452
 H2 0.72168 0.86003 0.91776  0.288028306452
 C1 0.270324 0.460852 0.10796  -0.240742943548
 C1 0.270181 0.460859 0.60802  -0.240742943548
 C1 0.270349 0.96094 0.10792  -0.240742943548
 C1 0.270125 0.960912 0.60803  -0.240742943548
 C1 0.770343 0.460852 0.10796  -0.240742943548
 C1 0.770201 0.460859 0.60802  -0.240742943548
 C1 0.770369 0.96094 0.10792  -0.240742943548
 C1 0.770142 0.960912 0.60803  -0.240742943548
 C2 0.324671 0.454406 0.16985  0.691095806452
 C2 0.324627 0.454406 0.66988  0.691095806452
 C2 0.324674 0.954451 0.16983  0.691095806452
 C2 0.324601 0.954429 0.66989  0.691095806452
 C2 0.824689 0.454406 0.16985  0.691095806452
 C2 0.824645 0.454406 0.66988  0.691095806452
 C2 0.824692 0.954451 0.16983  0.691095806452
 C2 0.824618 0.954429 0.66989  0.691095806452
 C1 0.168397 0.130048 0.17249  -0.240742943548
 C1 0.168297 0.130144 0.67244  -0.240742943548
 C1 0.168449 0.630015 0.17253  -0.240742943548
 C1 0.168354 0.630096 0.67247  -0.240742943548
 C1 0.668416 0.130047 0.17249  -0.240742943548
 C1 0.668315 0.130144 0.67244  -0.240742943548
 C1 0.668468 0.630015 0.17253  -0.240742943548
 C1 0.668372 0.630096 0.67247  -0.240742943548
 C2 0.095888 0.075792 0.17996  0.691095806452
 C2 0.095786 0.075887 0.67993  0.691095806452
 C2 0.095921 0.575773 0.17997  0.691095806452
 C2 0.095835 0.575845 0.67994  0.691095806452
 C2 0.595906 0.075792 0.17996  0.691095806452
 C2 0.595804 0.075887 0.67993  0.691095806452
 C2 0.595939 0.575773 0.17997  0.691095806452
 C2 0.595853 0.575845 0.67994  0.691095806452
 C1 0.270143 0.039027 0.39195  -0.240742943548
 C1 0.270359 0.039041 0.89204  -0.240742943548
 C1 0.270132 0.539087 0.39191  -0.240742943548
 C1 0.270274 0.539146 0.89195  -0.240742943548
 C1 0.770162 0.039027 0.39195  -0.240742943548
 C1 0.770378 0.039041 0.89204  -0.240742943548
 C1 0.770151 0.539088 0.39191  -0.240742943548
 C1 0.770294 0.539147 0.89195  -0.240742943548
 C2 0.324573 0.045567 0.33009  0.691095806452
 C2 0.324655 0.045561 0.83014  0.691095806452
 C2 0.324575 0.545606 0.33006  0.691095806452
 C2 0.324629 0.545632 0.83007  0.691095806452
 C2 0.824592 0.045567 0.33009  0.691095806452
 C2 0.824673 0.045561 0.83014  0.691095806452
 C2 0.824593 0.545606 0.33006  0.691095806452
 C2 0.824647 0.545632 0.83007  0.691095806452
 C1 0.168276 0.369808 0.32751  -0.240742943548
 C1 0.168367 0.369898 0.82746  -0.240742943548
 C1 0.168242 0.869775 0.32756  -0.240742943548
 C1 0.168344 0.869879 0.82751  -0.240742943548
 C1 0.668295 0.369809 0.32751  -0.240742943548
 C1 0.668385 0.369899 0.8274  -0.240742943548
 C1 0.668261 0.869775 0.32756  -0.240742943548
 C1 0.668362 0.869879 0.82751  -0.240742943548
 C2 0.095732 0.424043 0.32008  0.691095806452
 C2 0.09581 0.424122 0.8200  0.691095806452
 C2 0.095725 0.92403 0.32009  0.691095806452
 C2 0.095824 0.924129 0.82006  0.691095806452
 C2 0.59575 0.424043 0.32008  0.691095806452
 C2 0.595828 0.424122 0.8200  0.691095806452
 C2 0.595744 0.92403 0.32009  0.691095806452
 C2 0.595842 0.924129 0.82006  0.691095806452
 C1 0.229687 0.107902 0.46091  -0.240742943548
 C1 0.229658 0.107856 0.9610  -0.240742943548
 C1 0.229807 0.607936 0.46092  -0.240742943548
 C1 0.229879 0.607937 0.96100  -0.240742943548
 C1 0.729706 0.107902 0.46091  -0.240742943548
 C1 0.729677 0.107856 0.9610  -0.240742943548
 C1 0.729827 0.607937 0.46092  -0.240742943548
 C1 0.729898 0.607937 0.96100  -0.240742943548
 C2 0.175341 0.169808 0.45450  0.691095806452
 C2 0.175347 0.169784 0.95454  0.691095806452
 C2 0.175379 0.669815 0.45450  0.691095806452
 C2 0.175417 0.669813 0.95455  0.691095806452
 C2 0.67536 0.169808 0.45450  0.691095806452
 C2 0.675366 0.169785 0.95454  0.691095806452
 C2 0.675398 0.669815 0.45450  0.691095806452
 C2 0.675435 0.669813 0.95455  0.691095806452
 C1 0.331665 0.172499 0.13002  -0.240742943548
 C1 0.331625 0.172532 0.63001  -0.240742943548
 C1 0.331779 0.672425 0.13013  -0.240742943548
 C1 0.331711 0.672469 0.63007  -0.240742943548
 C1 0.831683 0.172499 0.13002  -0.240742943548
 C1 0.831643 0.172532 0.63001  -0.240742943548
 C1 0.831797 0.672425 0.13013  -0.240742943548
 C1 0.831729 0.672469 0.63007  -0.240742943548
 C2 0.404122 0.179975 0.07577  0.691095806452
 C2 0.404102 0.17998 0.57577  0.691095806452
 C2 0.404236 0.679929 0.07587  0.691095806452
 C2 0.404179 0.679943 0.57583  0.691095806452
 C2 0.90414 0.179975 0.07577  0.691095806452
 C2 0.90412 0.17998 0.57577  0.691095806452
 C2 0.904254 0.679929 0.07587  0.691095806452
 C2 0.904197 0.679943 0.57583  0.691095806452
 C1 0.229933 0.391965 0.03900  -0.240742943548
 C1 0.229949 0.391925 0.53908  -0.240742943548
 C1 0.229739 0.892028 0.03903  -0.240742943548
 C1 0.229867 0.891925 0.53915  -0.240742943548
 C1 0.729952 0.391965 0.03900  -0.240742943548
 C1 0.729968 0.391924 0.53908  -0.240742943548
 C1 0.729758 0.892028 0.03903  -0.240742943548
 C1 0.729888 0.891923 0.53915  -0.240742943548
 C2 0.17548 0.330091 0.04547  0.691095806452
 C2 0.175488 0.330059 0.5455  0.691095806452
 C2 0.17542 0.830112 0.04549  0.691095806452
 C2 0.175468 0.830046 0.54557  0.691095806452
 C2 0.675498 0.330091 0.04547  0.691095806452
 C2 0.675507 0.330059 0.5455  0.691095806452
 C2 0.675438 0.830112 0.04549  0.691095806452
 C2 0.675488 0.830045 0.54557  0.691095806452
 C1 0.331762 0.327512 0.3698  -0.240742943548
 C1 0.33181 0.327559 0.86980  -0.240742943548
 C1 0.331694 0.827454 0.36991  -0.240742943548
 C1 0.33172 0.82749 0.8699  -0.240742943548
 C1 0.83178 0.327512 0.36982  -0.240742943548
 C1 0.831829 0.327559 0.86980  -0.240742943548
 C1 0.831713 0.827455 0.3699  -0.240742943548
 C1 0.831738 0.82749 0.86991  -0.240742943548
 C2 0.404283 0.320052 0.42406  0.691095806452
 C2 0.404306 0.320059 0.92406  0.691095806452
 C2 0.404233 0.820023 0.42413  0.691095806452
 C2 0.40422 0.820018 0.92417  0.691095806452
 C2 0.904301 0.320052 0.42406  0.691095806452
 C2 0.904324 0.320059 0.92406  0.691095806452
 C2 0.904251 0.820023 0.42413  0.691095806452
 C2 0.904239 0.820018 0.9241  0.691095806452
 N1 0.250326 0.396171 0.10365  -0.0848541935484
 N1 0.250127 0.396174 0.60374  -0.0848541935484
 N1 0.250042 0.896271 0.10368  -0.0848541935484
 N1 0.249834 0.896232 0.60381  -0.0848541935484
 N1 0.750346 0.39617 0.10365  -0.0848541935484
 N1 0.750147 0.396174 0.60374  -0.0848541935484
 N1 0.750062 0.896271 0.1036  -0.0848541935484
 N1 0.749851 0.896232 0.60381  -0.0848541935484
 N1 0.249698 0.10367 0.39623  -0.0848541935484
 N1 0.249989 0.103682 0.89634  -0.0848541935484
 N1 0.249881 0.603736 0.39623  -0.0848541935484
 N1 0.250225 0.603799 0.89632  -0.0848541935484
 N1 0.749718 0.10367 0.39623  -0.0848541935484
 N1 0.750009 0.103683 0.89634  -0.0848541935484
 N1 0.749901 0.603737 0.39623  -0.0848541935484
 N1 0.750245 0.603799 0.89632  -0.0848541935484
 N1 0.250017 0.128161 0.12818  -0.0848541935484
 N1 0.249963 0.128199 0.62818  -0.0848541935484
 N1 0.250085 0.628136 0.12823  -0.0848541935484
 N1 0.250022 0.628166 0.62820  -0.0848541935484
 N1 0.750035 0.128161 0.12818  -0.0848541935484
 N1 0.749981 0.128199 0.62818  -0.0848541935484
 N1 0.750103 0.628136 0.12823  -0.0848541935484
 N1 0.75004 0.628166 0.62820  -0.0848541935484
 N1 0.250019 0.371764 0.37174  -0.0848541935484
 N1 0.250075 0.371812 0.8717  -0.0848541935484
 N1 0.249981 0.871737 0.37179  -0.0848541935484
 N1 0.250032 0.871789 0.87179  -0.0848541935484
 N1 0.750037 0.371764 0.37174  -0.0848541935484
 N1 0.750093 0.371812 0.8717  -0.0848541935484
 N1 0.749999 0.871737 0.37179  -0.0848541935484
 N1 0.75005 0.871789 0.87179  -0.0848541935484
 O1 0.349358 0.007587 0.17756  -0.638671693548
 O1 0.349248 0.007561 0.67764  -0.638671693548
 O1 0.349342 0.50754 0.17756  -0.638671693548
 O1 0.349276 0.507533 0.67761  -0.638671693548
 O1 0.849377 0.007587 0.17756  -0.638671693548
 O1 0.849266 0.007561 0.67764  -0.638671693548
 O1 0.84936 0.50754 0.17756  -0.638671693548
 O1 0.849295 0.507533 0.67761  -0.638671693548
 O2 0.341296 0.400274 0.20587  -0.607162943548
 O2 0.341335 0.400266 0.70587  -0.607162943548
 O2 0.341267 0.900308 0.20584  -0.607162943548
 O2 0.341327 0.90028 0.70585  -0.607162943548
 O2 0.841314 0.400274 0.20587  -0.607162943548
 O2 0.841353 0.400266 0.70587  -0.607162943548
 O2 0.841285 0.900308 0.20584  -0.607162943548
 O2 0.841345 0.90028 0.70585  -0.607162943548
 O1 0.026257 0.076804 0.21914  -0.638671693548
 O1 0.026086 0.076948 0.7190  -0.638671693548
 O1 0.026283 0.576781 0.21914  -0.638671693548
 O1 0.026147 0.576894 0.71907  -0.638671693548
 O1 0.526275 0.076804 0.21914  -0.638671693548
 O1 0.526104 0.076948 0.7190  -0.638671693548
 O1 0.526301 0.576781 0.21914  -0.638671693548
 O1 0.526164 0.576894 0.71907  -0.638671693548
 O2 0.108374 0.036486 0.15091  -0.607162943548
 O2 0.10834 0.036525 0.65095  -0.607162943548
 O2 0.108395 0.536482 0.15090  -0.607162943548
 O2 0.108368 0.536504 0.65094  -0.607162943548
 O2 0.608392 0.036486 0.15091  -0.607162943548
 O2 0.608358 0.036525 0.65095  -0.607162943548
 O2 0.608413 0.536482 0.15090  -0.607162943548
 O2 0.608386 0.536504 0.65094  -0.607162943548
 O1 0.349172 0.492504 0.32225  -0.638671693548
 O1 0.349242 0.492514 0.82230  -0.638671693548
 O1 0.349217 0.992457 0.32228  -0.638671693548
 O1 0.349334 0.992438 0.82236  -0.638671693548
 O1 0.849191 0.492504 0.32225  -0.638671693548
 O1 0.84926 0.492514 0.82230  -0.638671693548
 O1 0.849235 0.992456 0.32228  -0.638671693548
 O1 0.849352 0.992438 0.82236  -0.638671693548
 O2 0.341306 0.099738 0.29419  -0.607162943548
 O2 0.341269 0.099719 0.79418  -0.607162943548
 O2 0.341347 0.599773 0.29416  -0.607162943548
 O2 0.34133 0.599785 0.7941  -0.607162943548
 O2 0.841324 0.099738 0.29419  -0.607162943548
 O2 0.841287 0.099719 0.79418  -0.607162943548
 O2 0.841365 0.599772 0.29416  -0.607162943548
 O2 0.841348 0.599785 0.79413  -0.607162943548
 O1 0.025958 0.422973 0.28099  -0.638671693548
 O1 0.02607 0.423081 0.78094  -0.638671693548
 O1 0.025969 0.922964 0.28099  -0.638671693548
 O1 0.026121 0.923102 0.7809  -0.638671693548
 O1 0.525976 0.422973 0.28099  -0.638671693548
 O1 0.526088 0.423081 0.78094  -0.638671693548
 O1 0.525987 0.922964 0.28099  -0.638671693548
 O1 0.52614 0.923102 0.78091  -0.638671693548
 O2 0.108336 0.46341 0.34905  -0.607162943548
 O2 0.108373 0.463449 0.8490  -0.607162943548
 O2 0.108335 0.963409 0.34904  -0.607162943548
 O2 0.10838 0.963461 0.84908  -0.607162943548
 O2 0.608354 0.46341 0.34905  -0.607162943548
 O2 0.608391 0.46345 0.8490  -0.607162943548
 O2 0.608353 0.96341 0.3490  -0.607162943548
 O2 0.608398 0.963461 0.84908  -0.607162943548
 O1 0.150609 0.177486 0.00764  -0.638671693548
 O1 0.150638 0.177481 0.5076  -0.638671693548
 O1 0.150693 0.677519 0.00764  -0.638671693548
 O1 0.150682 0.677494 0.50762  -0.638671693548
 O1 0.650628 0.177486 0.00764  -0.638671693548
 O1 0.650656 0.177481 0.5076  -0.638671693548
 O1 0.650711 0.677519 0.00764  -0.638671693548
 O1 0.6507 0.677494 0.50762  -0.638671693548
 O2 0.158693 0.205873 0.40040  -0.607162943548
 O2 0.158739 0.205836 0.90044  -0.607162943548
 O2 0.158675 0.705858 0.40040  -0.607162943548
 O2 0.158697 0.705829 0.9004  -0.607162943548
 O2 0.658711 0.205873 0.40040  -0.607162943548
 O2 0.658757 0.205836 0.90044  -0.607162943548
 O2 0.658693 0.705857 0.40040  -0.607162943548
 O2 0.658716 0.705829 0.90044  -0.607162943548
 O1 0.473758 0.219179 0.07676  -0.638671693548
 O1 0.473744 0.219182 0.57675  -0.638671693548
 O1 0.473944 0.71907 0.07691  -0.638671693548
 O1 0.473863 0.719108 0.57684  -0.638671693548
 O1 0.973777 0.219179 0.07676  -0.638671693548
 O1 0.973762 0.219182 0.57675  -0.638671693548
 O1 0.973962 0.71907 0.07691  -0.638671693548
 O1 0.973882 0.719108 0.57684  -0.638671693548
 O2 0.391617 0.15089 0.03650  -0.607162943548
 O2 0.391609 0.150878 0.53651  -0.607162943548
 O2 0.39166 0.650921 0.03654  -0.607162943548
 O2 0.391639 0.650895 0.53653  -0.607162943548
 O2 0.891635 0.15089 0.03650  -0.607162943548
 O2 0.891627 0.150878 0.53651  -0.607162943548
 O2 0.891678 0.650921 0.03654  -0.607162943548
 O2 0.891657 0.650895 0.53653  -0.607162943548
 O1 0.150866 0.322298 0.49243  -0.638671693548
 O1 0.150837 0.322318 0.99239  -0.638671693548
 O1 0.150848 0.822307 0.49246  -0.638671693548
 O1 0.150757 0.822362 0.99240  -0.638671693548
 O1 0.650884 0.322297 0.49243  -0.638671693548
 O1 0.650855 0.322318 0.99239  -0.638671693548
 O1 0.650868 0.822306 0.49246  -0.638671693548
 O1 0.650775 0.822362 0.99240  -0.638671693548
 O2 0.15868 0.29415 0.09960  -0.607162943548
 O2 0.158654 0.294118 0.59964  -0.607162943548
 O2 0.158726 0.794126 0.09961  -0.607162943548
 O2 0.158671 0.794075 0.59968  -0.607162943548
 O2 0.658698 0.294151 0.09960  -0.607162943548
 O2 0.658672 0.294118 0.59964  -0.607162943548
 O2 0.658745 0.794126 0.09961  -0.607162943548
 O2 0.658689 0.794074 0.59968  -0.607162943548
 O1 0.474052 0.280952 0.42301  -0.638671693548
 O1 0.474061 0.280951 0.9230  -0.638671693548
 O1 0.473978 0.780901 0.42310  -0.638671693548
 O1 0.473922 0.780861 0.92315  -0.638671693548
 O1 0.97407 0.280952 0.42301  -0.638671693548
 O1 0.974079 0.280951 0.9230  -0.638671693548
 O1 0.973996 0.7809 0.42310  -0.638671693548
 O1 0.97394 0.780862 0.92315  -0.638671693548
 O2 0.391683 0.34905 0.46340  -0.607162943548
 O2 0.3917 0.349039 0.96341  -0.607162943548
 O2 0.391667 0.849061 0.46343  -0.607162943548
 O2 0.391669 0.84906 0.96347  -0.607162943548
 O2 0.891701 0.34905 0.46340  -0.607162943548
 O2 0.891718 0.349039 0.96341  -0.607162943548
 O2 0.891685 0.849061 0.46343  -0.607162943548
 O2 0.891687 0.84906 0.96347  -0.607162943548
