#======================================================================

# CRYSTAL DATA

#----------------------------------------------------------------------

data_VESTA_phase_1


_pd_phase_name                         MOF
_cell_length_a                         17.20200
_cell_length_b                         18.54800
_cell_length_c                         18.55600
_cell_angle_alpha                      77.63300
_cell_angle_beta                       62.43300
_cell_angle_gamma                      62.42400
_symmetry_space_group_name_H-M         "P 1"
_symmetry_Int_Tables_number            1

loop_
_symmetry_equiv_pos_as_xyz
   "x, y, z"

loop_
   _atom_site_label
   _atom_site_fract_x
   _atom_site_fract_y
   _atom_site_fract_z
 _atom_site_charge
 K1 0.312296 0.375259 0.3752  0.936855714286
 K1 0.312298 0.375262 0.87521  0.936855714286
 K1 0.312298 0.875253 0.37522  0.936855714286
 K1 0.3123 0.875252 0.87521  0.936855714286
 K1 0.812307 0.37526 0.37522  0.936855714286
 K1 0.812309 0.375261 0.87521  0.936855714286
 K1 0.812309 0.875251 0.37522  0.936855714286
 K1 0.812311 0.875253 0.87521  0.936855714286
 K1 0.187609 0.124948 0.12490  0.936855714286
 K1 0.187611 0.12495 0.62488  0.936855714286
 K1 0.187612 0.62494 0.12490  0.936855714286
 K1 0.187613 0.624941 0.62488  0.936855714286
 K1 0.68762 0.124949 0.12490  0.936855714286
 K1 0.687622 0.124948 0.62488  0.936855714286
 K1 0.687623 0.624938 0.12490  0.936855714286
 K1 0.687624 0.624942 0.62488  0.936855714286
 Y1 0.06251 0.375038 0.37499  1.91781071429
 Y1 0.06251 0.37504 0.8749  1.91781071429
 Y1 0.062513 0.87503 0.37499  1.91781071429
 Y1 0.062513 0.875034 0.87497  1.91781071429
 Y1 0.56252 0.375037 0.37499  1.91781071429
 Y1 0.562521 0.375042 0.87497  1.91781071429
 Y1 0.562524 0.875032 0.3749  1.91781071429
 Y1 0.562524 0.875032 0.87497  1.91781071429
 Y1 0.437399 0.125165 0.12513  1.91781071429
 Y1 0.437399 0.125165 0.62512  1.91781071429
 Y1 0.437402 0.625156 0.12513  1.91781071429
 Y1 0.437402 0.625161 0.62512  1.91781071429
 Y1 0.937409 0.125164 0.12513  1.91781071429
 Y1 0.93741 0.125167 0.62512  1.91781071429
 Y1 0.937413 0.625158 0.12513  1.91781071429
 Y1 0.937413 0.625159 0.62512  1.91781071429
 C1 0.281215 0.261194 0.26117  0.564064464286
 C1 0.281215 0.261195 0.76116  0.564064464286
 C1 0.281219 0.76119 0.26117  0.564064464286
 C1 0.281218 0.761193 0.7611  0.564064464286
 C1 0.781225 0.261193 0.26118  0.564064464286
 C1 0.781225 0.261196 0.76116  0.564064464286
 C1 0.781229 0.761191 0.26117  0.564064464286
 C1 0.781229 0.761192 0.76116  0.564064464286
 C1 0.053318 0.489089 0.48903  0.564064464286
 C1 0.053319 0.489093 0.98902  0.564064464286
 C1 0.053317 0.989082 0.4890  0.564064464286
 C1 0.053318 0.989087 0.98902  0.564064464286
 C1 0.553329 0.489089 0.48903  0.564064464286
 C1 0.55333 0.489093 0.98902  0.564064464286
 C1 0.553328 0.989081 0.48904  0.564064464286
 C1 0.553329 0.989086 0.98902  0.564064464286
 C1 0.042314 0.239043 0.0111  0.564064464286
 C1 0.042316 0.239046 0.51110  0.564064464286
 C1 0.042322 0.739033 0.01111  0.564064464286
 C1 0.042323 0.739034 0.511  0.564064464286
 C1 0.542325 0.239045 0.01111  0.564064464286
 C1 0.542326 0.239044 0.51110  0.564064464286
 C1 0.542333 0.739031 0.01111  0.564064464286
 C1 0.542334 0.739036 0.51109  0.564064464286
 C1 0.042332 0.011141 0.23898  0.564064464286
 C1 0.042333 0.011145 0.73897  0.564064464286
 C1 0.042333 0.511134 0.23898  0.564064464286
 C1 0.042334 0.511135 0.73897  0.564064464286
 C1 0.542343 0.011143 0.23898  0.564064464286
 C1 0.542344 0.011143 0.73897  0.564064464286
 C1 0.542344 0.511132 0.23898  0.564064464286
 C1 0.542345 0.511137 0.7389  0.564064464286
 C1 0.218698 0.239002 0.23896  0.564064464286
 C1 0.218699 0.239002 0.73895  0.564064464286
 C1 0.218702 0.738997 0.23896  0.564064464286
 C1 0.218702 0.739002 0.73894  0.564064464286
 C1 0.718709 0.239001 0.23896  0.564064464286
 C1 0.718709 0.239004 0.73895  0.564064464286
 C1 0.718713 0.738999 0.23895  0.564064464286
 C1 0.718713 0.739 0.73894  0.564064464286
 C1 0.446575 0.011118 0.01109  0.564064464286
 C1 0.446575 0.011123 0.51108  0.564064464286
 C1 0.446574 0.511111 0.01109  0.564064464286
 C1 0.446574 0.511116 0.51108  0.564064464286
 C1 0.946585 0.011118 0.01109  0.564064464286
 C1 0.946586 0.011123 0.51108  0.564064464286
 C1 0.946585 0.511111 0.01109  0.564064464286
 C1 0.946585 0.511116 0.51108  0.564064464286
 C1 0.457597 0.261155 0.4890  0.564064464286
 C1 0.457599 0.26116 0.98899  0.564064464286
 C1 0.457605 0.761148 0.48900  0.564064464286
 C1 0.457607 0.761146 0.9889  0.564064464286
 C1 0.957609 0.261157 0.48900  0.564064464286
 C1 0.95761 0.261158 0.98899  0.564064464286
 C1 0.957616 0.761145 0.48900  0.564064464286
 C1 0.957618 0.761148 0.98898  0.564064464286
 C1 0.457598 0.489044 0.26112  0.564064464286
 C1 0.457598 0.489049 0.76111  0.564064464286
 C1 0.457598 0.989038 0.26112  0.564064464286
 C1 0.457599 0.989037 0.76111  0.564064464286
 C1 0.957608 0.489046 0.26112  0.564064464286
 C1 0.957609 0.489047 0.76111  0.564064464286
 C1 0.95761 0.989036 0.26112  0.564064464286
 C1 0.95761 0.989039 0.76111  0.564064464286
 O1 0.235833 0.315333 0.31533  -0.639011785714
 O1 0.235833 0.315334 0.8153  -0.639011785714
 O1 0.235836 0.81533 0.31532  -0.639011785714
 O1 0.235836 0.815333 0.81531  -0.639011785714
 O1 0.735843 0.315332 0.31533  -0.639011785714
 O1 0.735843 0.315336 0.81531  -0.639011785714
 O1 0.735847 0.815331 0.31532  -0.639011785714
 O1 0.735847 0.815331 0.81531  -0.639011785714
 O2 0.095974 0.473816 0.27617  -0.638719285714
 O2 0.095975 0.473817 0.77616  -0.638719285714
 O2 0.095968 0.973815 0.27618  -0.638719285714
 O2 0.095969 0.973819 0.77616  -0.638719285714
 O2 0.595985 0.473814 0.27617  -0.638719285714
 O2 0.595986 0.473819 0.7761  -0.638719285714
 O2 0.595979 0.973817 0.27617  -0.638719285714
 O2 0.59598 0.973816 0.77616  -0.638719285714
 O1 0.116237 0.434981 0.43488  -0.639011785714
 O1 0.116238 0.434984 0.93487  -0.639011785714
 O1 0.116237 0.934972 0.43489  -0.639011785714
 O1 0.116238 0.934977 0.93487  -0.639011785714
 O1 0.616247 0.43498 0.43489  -0.639011785714
 O1 0.616249 0.434985 0.93487  -0.639011785714
 O1 0.616248 0.934973 0.43489  -0.639011785714
 O1 0.616249 0.934975 0.93487  -0.639011785714
 O2 0.095962 0.276235 0.47377  -0.638719285714
 O2 0.09596 0.276239 0.97376  -0.638719285714
 O2 0.09597 0.776222 0.47376  -0.638719285714
 O2 0.095968 0.776229 0.97375  -0.638719285714
 O2 0.595973 0.276233 0.47377  -0.638719285714
 O2 0.595971 0.276241 0.97375  -0.638719285714
 O2 0.595981 0.776224 0.47376  -0.638719285714
 O2 0.59598 0.776226 0.97375  -0.638719285714
 O1 0.050994 0.185017 0.06535  -0.639011785714
 O1 0.050997 0.185018 0.5653  -0.639011785714
 O1 0.051001 0.685009 0.06535  -0.639011785714
 O1 0.051003 0.685008 0.56533  -0.639011785714
 O1 0.551005 0.185019 0.06535  -0.639011785714
 O1 0.551008 0.185016 0.56534  -0.639011785714
 O1 0.551012 0.685007 0.06535  -0.639011785714
 O1 0.551014 0.68501 0.56533  -0.639011785714
 O2 0.372004 0.22399 0.22397  -0.638719285714
 O2 0.372004 0.223991 0.7239  -0.638719285714
 O2 0.372008 0.723985 0.22396  -0.638719285714
 O2 0.372008 0.72399 0.72395  -0.638719285714
 O2 0.872014 0.223989 0.22397  -0.638719285714
 O2 0.872014 0.223993 0.72395  -0.638719285714
 O2 0.872018 0.723987 0.22396  -0.638719285714
 O2 0.872019 0.723988 0.72395  -0.638719285714
 O1 0.051036 0.065347 0.18492  -0.639011785714
 O1 0.051036 0.065351 0.68491  -0.639011785714
 O1 0.051041 0.565337 0.18492  -0.639011785714
 O1 0.051041 0.565339 0.68490  -0.639011785714
 O1 0.551047 0.065349 0.18492  -0.639011785714
 O1 0.551048 0.065349 0.68491  -0.639011785714
 O1 0.551052 0.565335 0.18492  -0.639011785714
 O1 0.551052 0.565341 0.68490  -0.639011785714
 O2 0.069587 0.026391 0.02637  -0.638719285714
 O2 0.069588 0.026393 0.52635  -0.638719285714
 O2 0.069589 0.526384 0.0263  -0.638719285714
 O2 0.06959 0.526384 0.52635  -0.638719285714
 O2 0.569598 0.026392 0.02637  -0.638719285714
 O2 0.569599 0.026392 0.5263  -0.638719285714
 O2 0.5696 0.526383 0.02637  -0.638719285714
 O2 0.5696 0.526386 0.52635  -0.638719285714
 O1 0.264083 0.184865 0.1848  -0.639011785714
 O1 0.264083 0.184864 0.68479  -0.639011785714
 O1 0.264087 0.68486 0.18480  -0.639011785714
 O1 0.264087 0.684863 0.68479  -0.639011785714
 O1 0.764093 0.184863 0.18481  -0.639011785714
 O1 0.764094 0.184865 0.68479  -0.639011785714
 O1 0.764098 0.684862 0.18480  -0.639011785714
 O1 0.764098 0.684862 0.68479  -0.639011785714
 O2 0.403958 0.026368 0.22393  -0.638719285714
 O2 0.40396 0.026367 0.72392  -0.638719285714
 O2 0.403952 0.526366 0.22394  -0.638719285714
 O2 0.403953 0.526371 0.72392  -0.638719285714
 O2 0.903969 0.026366 0.22393  -0.638719285714
 O2 0.90397 0.026369 0.7239  -0.638719285714
 O2 0.903963 0.526368 0.22394  -0.638719285714
 O2 0.903964 0.526369 0.72392  -0.638719285714
 O1 0.383655 0.065226 0.06524  -0.639011785714
 O1 0.383655 0.065229 0.56523  -0.639011785714
 O1 0.383655 0.565217 0.06525  -0.639011785714
 O1 0.383656 0.565223 0.56523  -0.639011785714
 O1 0.883665 0.065226 0.06524  -0.639011785714
 O1 0.883666 0.06523 0.56523  -0.639011785714
 O1 0.883666 0.565218 0.0652  -0.639011785714
 O1 0.883667 0.565221 0.56523  -0.639011785714
 O2 0.403948 0.223968 0.02635  -0.638719285714
 O2 0.403946 0.223971 0.52634  -0.638719285714
 O2 0.403957 0.723954 0.02635  -0.638719285714
 O2 0.403954 0.723963 0.52633  -0.638719285714
 O2 0.903959 0.223966 0.02635  -0.638719285714
 O2 0.903957 0.223974 0.52634  -0.638719285714
 O2 0.903968 0.723956 0.02634  -0.638719285714
 O2 0.903965 0.723961 0.5263  -0.638719285714
 O1 0.448923 0.315178 0.43476  -0.639011785714
 O1 0.448926 0.315181 0.9347  -0.639011785714
 O1 0.44893 0.815171 0.43476  -0.639011785714
 O1 0.448932 0.815169 0.93474  -0.639011785714
 O1 0.948934 0.31518 0.43476  -0.639011785714
 O1 0.948937 0.315178 0.93475  -0.639011785714
 O1 0.94894 0.815169 0.43476  -0.639011785714
 O1 0.948943 0.815171 0.93474  -0.639011785714
 O2 0.127909 0.276203 0.27617  -0.638719285714
 O2 0.127909 0.276204 0.77615  -0.638719285714
 O2 0.127913 0.776198 0.27616  -0.638719285714
 O2 0.127913 0.776202 0.77615  -0.638719285714
 O2 0.627919 0.276202 0.27617  -0.638719285714
 O2 0.627919 0.276206 0.77615  -0.638719285714
 O2 0.627923 0.7762 0.27616  -0.638719285714
 O2 0.627924 0.7762 0.77615  -0.638719285714
 O1 0.448894 0.434837 0.31518  -0.639011785714
 O1 0.448894 0.434842 0.81517  -0.639011785714
 O1 0.448899 0.934828 0.31518  -0.639011785714
 O1 0.448899 0.934828 0.81517  -0.639011785714
 O1 0.948905 0.434839 0.31518  -0.639011785714
 O1 0.948906 0.43484 0.81517  -0.639011785714
 O1 0.94891 0.934826 0.31518  -0.639011785714
 O1 0.94891 0.93483 0.81516  -0.639011785714
 O2 0.430306 0.47382 0.47376  -0.638719285714
 O2 0.430307 0.473822 0.97374  -0.638719285714
 O2 0.430308 0.973813 0.47375  -0.638719285714
 O2 0.430308 0.973813 0.97374  -0.638719285714
 O2 0.930317 0.473821 0.4737  -0.638719285714
 O2 0.930318 0.47382 0.97374  -0.638719285714
 O2 0.930318 0.973812 0.47375  -0.638719285714
 O2 0.930319 0.973815 0.97374  -0.638719285714
