#======================================================================

# CRYSTAL DATA

#----------------------------------------------------------------------

data_VESTA_phase_1


_pd_phase_name                         MOF
_cell_length_a                         12.31800
_cell_length_b                         21.04500
_cell_length_c                         16.64300
_cell_angle_alpha                      71.59000
_cell_angle_beta                       83.89100
_cell_angle_gamma                      90.00500
_symmetry_space_group_name_H-M         "P 1"
_symmetry_Int_Tables_number            1

loop_
_symmetry_equiv_pos_as_xyz
   "x, y, z"

loop_
   _atom_site_label
   _atom_site_fract_x
   _atom_site_fract_y
   _atom_site_fract_z
 _atom_site_charge
 Ca1 0.375061 0.452127 0.99997  1.59842820513
 Ca1 0.375064 0.952126 0.99997  1.59842820513
 Ca1 0.875075 0.452127 0.99997  1.59842820513
 Ca1 0.875078 0.952126 0.99997  1.59842820513
 Ca2 0.020836 0.09187 0.39623  1.50454320513
 Ca2 0.02084 0.591869 0.39623  1.50454320513
 Ca2 0.520851 0.09187 0.39623  1.50454320513
 Ca2 0.520854 0.591869 0.39623  1.50454320513
 Ca2 0.22919 0.290062 0.60372  1.50454320513
 Ca2 0.229193 0.790061 0.60372  1.50454320513
 Ca2 0.729204 0.290062 0.60372  1.50454320513
 Ca2 0.729207 0.790061 0.60372  1.50454320513
 Ca1 0.124963 0.047869 3.3e-0  1.59842820513
 Ca1 0.124966 0.547867 3.3e-0  1.59842820513
 Ca1 0.624977 0.047869 3.3e-0  1.59842820513
 Ca1 0.62498 0.547867 3.3e-0  1.59842820513
 Ca2 0.479186 0.408125 0.60376  1.50454320513
 Ca2 0.479189 0.908124 0.60376  1.50454320513
 Ca2 0.9792 0.408125 0.60376  1.50454320513
 Ca2 0.979203 0.908124 0.60376  1.50454320513
 Ca2 0.270832 0.209933 0.39627  1.50454320513
 Ca2 0.270835 0.709932 0.39627  1.50454320513
 Ca2 0.770846 0.209933 0.39627  1.50454320513
 Ca2 0.770849 0.709932 0.39627  1.50454320513
 H1 0.149982 0.171286 0.76014  0.411008205128
 H1 0.149985 0.671285 0.76014  0.411008205128
 H1 0.649996 0.171286 0.76014  0.411008205128
 H1 0.649999 0.671285 0.76014  0.411008205128
 H1 0.099992 0.051056 0.2399  0.411008205128
 H1 0.099996 0.551055 0.23995  0.411008205128
 H1 0.600006 0.051056 0.2399  0.411008205128
 H1 0.60001 0.551055 0.23995  0.411008205128
 H2 0.383872 0.127011 0.7815  0.267728205128
 H2 0.383875 0.62701 0.7815  0.267728205128
 H2 0.883886 0.127011 0.78154  0.267728205128
 H2 0.883889 0.62701 0.7815  0.267728205128
 H2 0.469202 0.065439 0.76257  0.267728205128
 H2 0.469205 0.565438 0.76257  0.267728205128
 H2 0.969217 0.065439 0.76257  0.267728205128
 H2 0.969219 0.565438 0.76257  0.267728205128
 H2 0.021561 0.091625 0.63349  0.267728205128
 H2 0.021563 0.591624 0.63349  0.267728205128
 H2 0.521575 0.091625 0.63349  0.267728205128
 H2 0.521578 0.591624 0.63349  0.267728205128
 H2 0.43027 0.156347 0.59958  0.267728205128
 H2 0.430273 0.656346 0.59958  0.267728205128
 H2 0.930284 0.156347 0.59958  0.267728205128
 H2 0.930287 0.656346 0.59958  0.267728205128
 H2 0.228614 0.408314 0.36677  0.267728205128
 H2 0.228618 0.908312 0.36677  0.267728205128
 H2 0.728629 0.408314 0.36677  0.267728205128
 H2 0.728632 0.908312 0.36677  0.267728205128
 H2 0.319799 0.456234 0.40060  0.267728205128
 H2 0.319803 0.956233 0.40060  0.267728205128
 H2 0.819814 0.456234 0.40060  0.267728205128
 H2 0.819817 0.956233 0.40060  0.267728205128
 H2 0.366151 0.017476 0.21860  0.267728205128
 H2 0.366154 0.517476 0.21860  0.267728205128
 H2 0.866165 0.017476 0.21860  0.267728205128
 H2 0.866168 0.517476 0.21860  0.267728205128
 H2 0.280662 0.446471 0.23765  0.267728205128
 H2 0.280664 0.94647 0.23765  0.267728205128
 H2 0.780676 0.446471 0.23765  0.267728205128
 H2 0.780678 0.94647 0.23765  0.267728205128
 H1 0.350042 0.328708 0.23985  0.411008205128
 H1 0.350045 0.828707 0.23985  0.411008205128
 H1 0.850056 0.328708 0.23985  0.411008205128
 H1 0.850059 0.828707 0.23985  0.411008205128
 H1 0.400031 0.44894 0.76004  0.411008205128
 H1 0.400034 0.948939 0.76004  0.411008205128
 H1 0.900045 0.44894 0.76004  0.411008205128
 H1 0.900048 0.948939 0.76004  0.411008205128
 H2 0.116151 0.372982 0.21845  0.267728205128
 H2 0.116154 0.872981 0.21845  0.267728205128
 H2 0.616165 0.372982 0.21845  0.267728205128
 H2 0.616168 0.872981 0.21845  0.267728205128
 H2 0.030824 0.434555 0.23742  0.267728205128
 H2 0.030827 0.934555 0.23742  0.267728205128
 H2 0.530839 0.434555 0.23742  0.267728205128
 H2 0.530841 0.934554 0.23742  0.267728205128
 H2 0.478456 0.408371 0.36650  0.267728205128
 H2 0.478459 0.90837 0.36650  0.267728205128
 H2 0.978471 0.408371 0.36650  0.267728205128
 H2 0.978473 0.90837 0.36650  0.267728205128
 H2 0.069751 0.343651 0.40041  0.267728205128
 H2 0.069754 0.84365 0.40041  0.267728205128
 H2 0.569765 0.343651 0.40041  0.267728205128
 H2 0.569768 0.84365 0.40041  0.267728205128
 H2 0.271403 0.091681 0.63322  0.267728205128
 H2 0.271407 0.59168 0.63322  0.267728205128
 H2 0.771417 0.091681 0.63322  0.267728205128
 H2 0.771421 0.59168 0.63322  0.267728205128
 H2 0.180222 0.043759 0.59939  0.267728205128
 H2 0.180225 0.543758 0.59939  0.267728205128
 H2 0.680236 0.043759 0.59939  0.267728205128
 H2 0.680239 0.543758 0.59939  0.267728205128
 H2 0.133872 0.482519 0.781  0.267728205128
 H2 0.133875 0.982518 0.78139  0.267728205128
 H2 0.633886 0.482519 0.781  0.267728205128
 H2 0.633889 0.982518 0.78139  0.267728205128
 H2 0.219364 0.053524 0.76234  0.267728205128
 H2 0.219365 0.553523 0.76234  0.267728205128
 H2 0.719378 0.053524 0.76234  0.267728205128
 H2 0.71938 0.553523 0.76234  0.267728205128
 C1 0.013979 0.100947 0.85882  0.806550705128
 C1 0.013982 0.600946 0.85882  0.806550705128
 C1 0.513993 0.100947 0.85882  0.806550705128
 C1 0.513996 0.600946 0.85882  0.806550705128
 C2 0.470194 0.114159 0.77418  -0.440861794872
 C2 0.470197 0.614158 0.77418  -0.440861794872
 C2 0.970208 0.114159 0.77418  -0.440861794872
 C2 0.970211 0.614158 0.77418  -0.440861794872
 C3 0.028194 0.168677 0.69472  0.294428205128
 C3 0.028197 0.668676 0.69472  0.294428205128
 C3 0.528208 0.168677 0.69472  0.294428205128
 C3 0.528211 0.668676 0.69472  0.294428205128
 C2 0.01378 0.146124 0.61669  -0.440861794872
 C2 0.013783 0.646123 0.61669  -0.440861794872
 C2 0.513794 0.146124 0.61669  -0.440861794872
 C2 0.513797 0.646123 0.61669  -0.440861794872
 C4 0.089603 0.177697 0.53564  0.641113205128
 C4 0.089606 0.677696 0.53564  0.641113205128
 C4 0.589617 0.177697 0.53564  0.641113205128
 C4 0.58962 0.677696 0.53564  0.641113205128
 C4 0.471534 0.23703 0.6827  0.641113205128
 C4 0.471537 0.737029 0.6827  0.641113205128
 C4 0.971548 0.23703 0.68274  0.641113205128
 C4 0.971551 0.737029 0.6827  0.641113205128
 C4 0.160452 0.445628 0.46448  0.641113205128
 C4 0.160455 0.945627 0.46448  0.641113205128
 C4 0.660466 0.445628 0.46448  0.641113205128
 C4 0.660469 0.945627 0.46448  0.641113205128
 C2 0.2363 0.454477 0.38346  -0.440861794872
 C2 0.236304 0.954476 0.38346  -0.440861794872
 C2 0.736315 0.454477 0.38346  -0.440861794872
 C2 0.736318 0.954476 0.38346  -0.440861794872
 C3 0.221815 0.015924 0.30538  0.294428205128
 C3 0.221818 0.515923 0.30538  0.294428205128
 C3 0.721829 0.015924 0.30538  0.294428205128
 C3 0.721832 0.515923 0.30538  0.294428205128
 C2 0.2798 0.501003 0.22598  -0.440861794872
 C2 0.279803 0.0 0.22598  -0.440861794872
 C2 0.779814 0.501003 0.22598  -0.440861794872
 C2 0.779817 0.0 0.22598  -0.440861794872
 C1 0.235988 0.030041 0.14134  0.806550705128
 C1 0.235991 0.53004 0.14134  0.806550705128
 C1 0.736002 0.030041 0.14134  0.806550705128
 C1 0.736005 0.53004 0.14134  0.806550705128
 C4 0.278452 0.078344 0.31728  0.641113205128
 C4 0.278455 0.578343 0.31728  0.641113205128
 C4 0.778466 0.078344 0.31728  0.641113205128
 C4 0.778469 0.578343 0.31728  0.641113205128
 C1 0.486045 0.399048 0.14117  0.806550705128
 C1 0.486048 0.899047 0.14117  0.806550705128
 C1 0.986059 0.399048 0.14117  0.806550705128
 C1 0.986062 0.899047 0.14117  0.806550705128
 C2 0.02983 0.385835 0.22582  -0.440861794872
 C2 0.029833 0.885834 0.22582  -0.440861794872
 C2 0.529844 0.385835 0.22582  -0.440861794872
 C2 0.529847 0.885834 0.22582  -0.440861794872
 C3 0.471828 0.331318 0.30528  0.294428205128
 C3 0.471831 0.831317 0.30528  0.294428205128
 C3 0.971842 0.331318 0.30528  0.294428205128
 C3 0.971845 0.831317 0.30528  0.294428205128
 C2 0.48624 0.353871 0.38330  -0.440861794872
 C2 0.486243 0.85387 0.38330  -0.440861794872
 C2 0.986254 0.353871 0.38330  -0.440861794872
 C2 0.986257 0.85387 0.38330  -0.440861794872
 C4 0.410419 0.322298 0.46436  0.641113205128
 C4 0.410422 0.822297 0.46436  0.641113205128
 C4 0.910433 0.322298 0.46436  0.641113205128
 C4 0.910436 0.822297 0.46436  0.641113205128
 C4 0.028488 0.262964 0.31725  0.641113205128
 C4 0.028491 0.762963 0.31725  0.641113205128
 C4 0.528502 0.262964 0.31725  0.641113205128
 C4 0.528505 0.762963 0.31725  0.641113205128
 C4 0.33957 0.054367 0.53551  0.641113205128
 C4 0.339573 0.554366 0.53551  0.641113205128
 C4 0.839584 0.054367 0.53551  0.641113205128
 C4 0.839587 0.554366 0.53551  0.641113205128
 C2 0.26372 0.045518 0.61653  -0.440861794872
 C2 0.263723 0.545517 0.61653  -0.440861794872
 C2 0.763734 0.045518 0.61653  -0.440861794872
 C2 0.763737 0.545517 0.61653  -0.440861794872
 C3 0.278207 0.484071 0.69462  0.294428205128
 C3 0.27821 0.98407 0.69462  0.294428205128
 C3 0.778221 0.484071 0.69462  0.294428205128
 C3 0.778225 0.98407 0.69462  0.294428205128
 C2 0.220224 0.998993 0.77402  -0.440861794872
 C2 0.220227 0.498991 0.77402  -0.440861794872
 C2 0.720238 0.998993 0.77402  -0.440861794872
 C2 0.720241 0.498991 0.77402  -0.440861794872
 C1 0.264035 0.469955 0.8586  0.806550705128
 C1 0.264039 0.969954 0.8586  0.806550705128
 C1 0.764049 0.469955 0.8586  0.806550705128
 C1 0.764053 0.969954 0.8586  0.806550705128
 C4 0.22157 0.421651 0.68272  0.641113205128
 C4 0.221573 0.92165 0.68272  0.641113205128
 C4 0.721584 0.421651 0.68272  0.641113205128
 C4 0.721587 0.92165 0.68272  0.641113205128
 O1 0.096529 0.133062 0.86856  -0.670511794872
 O1 0.096533 0.633061 0.86856  -0.670511794872
 O1 0.596544 0.133062 0.86856  -0.670511794872
 O1 0.596547 0.633061 0.86856  -0.670511794872
 O2 0.467726 0.052653 0.92290  -0.750484919872
 O2 0.467729 0.552651 0.92290  -0.750484919872
 O2 0.96774 0.052653 0.92290  -0.750484919872
 O2 0.967743 0.552651 0.92290  -0.750484919872
 O2 0.101942 0.144583 0.48311  -0.750484919872
 O2 0.101945 0.644582 0.48311  -0.750484919872
 O2 0.601956 0.144583 0.48311  -0.750484919872
 O2 0.60196 0.644582 0.48311  -0.750484919872
 O2 0.13956 0.23364 0.52091  -0.750484919872
 O2 0.139564 0.733639 0.52091  -0.750484919872
 O2 0.639575 0.23364 0.52091  -0.750484919872
 O2 0.639578 0.733639 0.52091  -0.750484919872
 O2 0.032526 0.289265 0.66698  -0.750484919872
 O2 0.03253 0.789264 0.66698  -0.750484919872
 O2 0.532541 0.289265 0.66698  -0.750484919872
 O2 0.532544 0.789264 0.66698  -0.750484919872
 O1 0.368477 0.234358 0.68747  -0.670511794872
 O1 0.36848 0.734358 0.68747  -0.670511794872
 O1 0.868491 0.234358 0.68747  -0.670511794872
 O1 0.868494 0.734358 0.68747  -0.670511794872
 O3 0.143662 0.17493 0.70002  -0.584041794872
 O3 0.143665 0.674929 0.70002  -0.584041794872
 O3 0.643676 0.17493 0.70002  -0.584041794872
 O3 0.643679 0.674929 0.70002  -0.584041794872
 O2 0.110635 0.494276 0.47916  -0.750484919872
 O2 0.110638 0.994275 0.47916  -0.750484919872
 O2 0.610649 0.494276 0.47916  -0.750484919872
 O2 0.610653 0.994275 0.47916  -0.750484919872
 O2 0.148017 0.386286 0.51705  -0.750484919872
 O2 0.14802 0.886285 0.51705  -0.750484919872
 O2 0.648031 0.386286 0.51705  -0.750484919872
 O2 0.648034 0.886285 0.51705  -0.750484919872
 O2 0.282314 0.013834 0.07724  -0.750484919872
 O2 0.282317 0.513833 0.07724  -0.750484919872
 O2 0.782328 0.013834 0.07724  -0.750484919872
 O2 0.782331 0.513833 0.07724  -0.750484919872
 O1 0.153261 0.066872 0.13164  -0.670511794872
 O1 0.153264 0.566871 0.13164  -0.670511794872
 O1 0.653275 0.066872 0.13164  -0.670511794872
 O1 0.653278 0.566871 0.13164  -0.670511794872
 O2 0.217422 0.122689 0.33304  -0.750484919872
 O2 0.217425 0.622688 0.33304  -0.750484919872
 O2 0.717436 0.122689 0.33304  -0.750484919872
 O2 0.717439 0.622688 0.33304  -0.750484919872
 O1 0.381498 0.078057 0.31259  -0.670511794872
 O1 0.381501 0.578056 0.31259  -0.670511794872
 O1 0.881512 0.078058 0.31259  -0.670511794872
 O1 0.881515 0.578056 0.31259  -0.670511794872
 O3 0.106333 0.024777 0.30011  -0.584041794872
 O3 0.106336 0.524776 0.30011  -0.584041794872
 O3 0.606347 0.024777 0.30011  -0.584041794872
 O3 0.60635 0.524776 0.30011  -0.584041794872
 O1 0.403495 0.366933 0.13143  -0.670511794872
 O1 0.403498 0.866931 0.13143  -0.670511794872
 O1 0.903509 0.366933 0.13143  -0.670511794872
 O1 0.903512 0.866932 0.13143  -0.670511794872
 O2 0.032298 0.447343 0.07710  -0.750484919872
 O2 0.032301 0.947342 0.07710  -0.750484919872
 O2 0.532312 0.447343 0.07710  -0.750484919872
 O2 0.532315 0.947342 0.07710  -0.750484919872
 O2 0.398081 0.355412 0.51689  -0.750484919872
 O2 0.398084 0.855411 0.51689  -0.750484919872
 O2 0.898095 0.355412 0.51689  -0.750484919872
 O2 0.898098 0.855411 0.51689  -0.750484919872
 O2 0.360461 0.266355 0.47909  -0.750484919872
 O2 0.360464 0.766354 0.47909  -0.750484919872
 O2 0.860475 0.266355 0.47909  -0.750484919872
 O2 0.860478 0.766354 0.47909  -0.750484919872
 O2 0.467495 0.21073 0.33301  -0.750484919872
 O2 0.467499 0.710729 0.33301  -0.750484919872
 O2 0.967509 0.21073 0.33301  -0.750484919872
 O2 0.967513 0.710729 0.33301  -0.750484919872
 O1 0.131545 0.265636 0.31253  -0.670511794872
 O1 0.131548 0.765635 0.31253  -0.670511794872
 O1 0.631559 0.265636 0.31253  -0.670511794872
 O1 0.631562 0.765635 0.31253  -0.670511794872
 O3 0.356361 0.325065 0.29997  -0.584041794872
 O3 0.356364 0.825064 0.29997  -0.584041794872
 O3 0.856375 0.325065 0.29997  -0.584041794872
 O3 0.856378 0.825064 0.29997  -0.584041794872
 O2 0.389387 0.005719 0.52084  -0.750484919872
 O2 0.38939 0.505718 0.52084  -0.750484919872
 O2 0.889401 0.005719 0.52084  -0.750484919872
 O2 0.889405 0.505718 0.52084  -0.750484919872
 O2 0.352006 0.113709 0.48295  -0.750484919872
 O2 0.352009 0.613708 0.48295  -0.750484919872
 O2 0.85202 0.113709 0.48295  -0.750484919872
 O2 0.852023 0.613708 0.48295  -0.750484919872
 O2 0.217709 0.486161 0.92276  -0.750484919872
 O2 0.217712 0.98616 0.92276  -0.750484919872
 O2 0.717723 0.486161 0.92276  -0.750484919872
 O2 0.717727 0.98616 0.92276  -0.750484919872
 O1 0.346763 0.433124 0.86835  -0.670511794872
 O1 0.346766 0.933123 0.86835  -0.670511794872
 O1 0.846777 0.433124 0.86835  -0.670511794872
 O1 0.84678 0.933123 0.86835  -0.670511794872
 O2 0.2826 0.377306 0.66696  -0.750484919872
 O2 0.282603 0.877305 0.66696  -0.750484919872
 O2 0.782614 0.377306 0.66696  -0.750484919872
 O2 0.782617 0.877305 0.66696  -0.750484919872
 O1 0.118524 0.421937 0.68740  -0.670511794872
 O1 0.118527 0.921936 0.68740  -0.670511794872
 O1 0.618538 0.421937 0.68740  -0.670511794872
 O1 0.618542 0.921936 0.68740  -0.670511794872
 O3 0.393689 0.475218 0.69989  -0.584041794872
 O3 0.393693 0.975217 0.69989  -0.584041794872
 O3 0.893703 0.475218 0.69989  -0.584041794872
 O3 0.893707 0.975217 0.69989  -0.584041794872
