#======================================================================

# CRYSTAL DATA

#----------------------------------------------------------------------

data_VESTA_phase_1


_pd_phase_name                         MOF
_cell_length_a                         13.72800
_cell_length_b                         14.03000
_cell_length_c                         16.13400
_cell_angle_alpha                      89.99500
_cell_angle_beta                       89.98800
_cell_angle_gamma                      90.08300
_symmetry_space_group_name_H-M         "P 1"
_symmetry_Int_Tables_number            1

loop_
_symmetry_equiv_pos_as_xyz
   "x, y, z"

loop_
   _atom_site_label
   _atom_site_fract_x
   _atom_site_fract_y
   _atom_site_fract_z
 _atom_site_charge
 V1 0.218162 0.264528 0.4981  1.8901625
 V1 0.718147 0.26452 0.49811  1.8901625
 V1 0.031843 0.735393 0.99812  1.8901625
 V1 0.531832 0.735397 0.99811  1.8901625
 V1 0.281827 0.76454 0.9984  1.8901625
 V1 0.781814 0.764532 0.99845  1.8901625
 V1 0.468169 0.235389 0.49846  1.8901625
 V1 0.968157 0.23538 0.49846  1.8901625
 H1 0.285329 0.966557 0.81508  0.11333875
 H1 0.785326 0.966558 0.8150  0.11333875
 H1 0.274344 0.082295 0.69665  0.11333875
 H1 0.774333 0.082296 0.69665  0.11333875
 H1 0.475338 0.92512 0.80569  0.11333875
 H1 0.975339 0.924978 0.80557  0.11333875
 H1 0.464343 0.04086 0.68726  0.11333875
 H1 0.964353 0.040718 0.68715  0.11333875
 H1 0.464686 0.033362 0.31517  0.11333875
 H1 0.964689 0.033376 0.31517  0.11333875
 H1 0.475624 0.917638 0.1967  0.11333875
 H1 0.975614 0.917651 0.19675  0.11333875
 H1 0.274689 0.074878 0.30550  0.11333875
 H1 0.774674 0.074789 0.30558  0.11333875
 H1 0.285615 0.959152 0.18708  0.11333875
 H1 0.785611 0.959065 0.18715  0.11333875
 H1 0.214971 0.466062 0.68111  0.11333875
 H1 0.71497 0.46611 0.68106  0.11333875
 H1 0.225468 0.581856 0.79952  0.11333875
 H1 0.725467 0.581901 0.79948  0.11333875
 H1 0.024931 0.425485 0.69136  0.11333875
 H1 0.524918 0.425501 0.69136  0.11333875
 H1 0.035433 0.541288 0.80976  0.11333875
 H1 0.535419 0.541309 0.8097  0.11333875
 H1 0.035009 0.533961 0.18107  0.11333875
 H1 0.534975 0.53386 0.18098  0.11333875
 H1 0.024563 0.418125 0.29948  0.11333875
 H1 0.52453 0.418031 0.29940  0.11333875
 H1 0.225045 0.574496 0.19150  0.11333875
 H1 0.725017 0.574393 0.19143  0.11333875
 H1 0.214598 0.458652 0.30990  0.11333875
 H1 0.71457 0.45854 0.30983  0.11333875
 C1 0.137381 0.869144 0.88601  0.7289175
 C1 0.637373 0.869171 0.88603  0.7289175
 C2 0.130961 0.938933 0.81685  -0.1245425
 C2 0.630947 0.938993 0.81690  -0.1245425
 C3 0.21557 0.983233 0.78649  -0.0569375
 C3 0.715559 0.983263 0.78651  -0.0569375
 C3 0.209534 0.047345 0.72105  -0.0569375
 C3 0.709519 0.047376 0.72107  -0.0569375
 C3 0.040162 0.959986 0.78122  -0.0569375
 C3 0.540138 0.960095 0.78130  -0.0569375
 C3 0.034126 0.024095 0.7157  -0.0569375
 C3 0.534098 0.024203 0.71586  -0.0569375
 C2 0.118794 0.068022 0.68513  -0.1245425
 C2 0.618772 0.068082 0.68518  -0.1245425
 C1 0.112534 0.136083 0.61467  0.7289175
 C1 0.612514 0.136111 0.61469  0.7289175
 C1 0.112679 0.130784 0.38601  0.7289175
 C1 0.612654 0.13076 0.3860  0.7289175
 C2 0.119088 0.060977 0.31686  -0.1245425
 C2 0.619066 0.060934 0.31689  -0.1245425
 C3 0.034466 0.01669 0.28655  -0.0569375
 C3 0.534443 0.016661 0.28656  -0.0569375
 C3 0.040468 0.952582 0.22110  -0.0569375
 C3 0.540452 0.952554 0.22112  -0.0569375
 C3 0.209874 0.039894 0.28118  -0.0569375
 C3 0.709859 0.039823 0.28124  -0.0569375
 C3 0.215876 0.975791 0.21574  -0.0569375
 C3 0.715867 0.975721 0.21580  -0.0569375
 C2 0.131193 0.931888 0.18514  -0.1245425
 C2 0.631182 0.931845 0.18517  -0.1245425
 C1 0.137438 0.863842 0.11467  0.7289175
 C1 0.637428 0.86382 0.11468  0.7289175
 C1 0.362999 0.369119 0.61056  0.7289175
 C1 0.862988 0.369122 0.6105  0.7289175
 C2 0.36933 0.438944 0.67970  -0.1245425
 C2 0.869322 0.438956 0.6796  -0.1245425
 C3 0.284618 0.482995 0.70986  -0.0569375
 C3 0.784614 0.483027 0.70983  -0.0569375
 C3 0.290388 0.547125 0.77530  -0.0569375
 C3 0.790385 0.547156 0.77527  -0.0569375
 C3 0.460012 0.460294 0.71553  -0.0569375
 C3 0.960001 0.46029 0.71552  -0.0569375
 C3 0.465784 0.524426 0.78096  -0.0569375
 C3 0.965774 0.52442 0.7809  -0.0569375
 C2 0.381008 0.568094 0.81141  -0.1245425
 C2 0.881 0.568102 0.81139  -0.1245425
 C1 0.387166 0.63616 0.88188  0.7289175
 C1 0.887155 0.636159 0.88187  0.7289175
 C1 0.386939 0.630834 0.11057  0.7289175
 C1 0.886927 0.630831 0.11057  0.7289175
 C2 0.380623 0.561008 0.17972  -0.1245425
 C2 0.880612 0.561006 0.1797  -0.1245425
 C3 0.465347 0.516935 0.20980  -0.0569375
 C3 0.965346 0.516989 0.20985  -0.0569375
 C3 0.459606 0.452789 0.27524  -0.0569375
 C3 0.959605 0.452839 0.27529  -0.0569375
 C3 0.289956 0.539679 0.2156  -0.0569375
 C3 0.789936 0.539618 0.21558  -0.0569375
 C3 0.284214 0.475531 0.2810  -0.0569375
 C3 0.784193 0.475466 0.2810  -0.0569375
 C2 0.369004 0.431842 0.31142  -0.1245425
 C2 0.868993 0.431832 0.31142  -0.1245425
 C1 0.362867 0.36377 0.38189  0.7289175
 C1 0.862855 0.363755 0.38188  0.7289175
 O1 0.107575 0.306852 0.49707  -0.7646875
 O1 0.607562 0.30685 0.49707  -0.7646875
 O2 0.19269 0.170818 0.58752  -0.6399575
 O2 0.692673 0.170827 0.58753  -0.6399575
 O2 0.222057 0.849226 0.91374  -0.6399575
 O2 0.722051 0.849234 0.91375  -0.6399575
 O2 0.027932 0.155041 0.58630  -0.6399575
 O2 0.527914 0.155057 0.58631  -0.6399575
 O2 0.057274 0.833598 0.91246  -0.6399575
 O2 0.557268 0.833611 0.91247  -0.6399575
 O1 0.142427 0.693057 0.99707  -0.7646875
 O1 0.642415 0.693056 0.99707  -0.7646875
 O2 0.057288 0.829125 0.08752  -0.6399575
 O2 0.557276 0.829119 0.08753  -0.6399575
 O2 0.027999 0.150714 0.41375  -0.6399575
 O2 0.527972 0.150707 0.4137  -0.6399575
 O2 0.222046 0.844884 0.08628  -0.6399575
 O2 0.722036 0.844869 0.08628  -0.6399575
 O2 0.192781 0.166334 0.41244  -0.6399575
 O2 0.692755 0.166315 0.41245  -0.6399575
 O1 0.392541 0.806829 0.99949  -0.7646875
 O1 0.892529 0.806817 0.99950  -0.7646875
 O2 0.307052 0.670788 0.90899  -0.6399575
 O2 0.80704 0.670789 0.90898  -0.6399575
 O2 0.27831 0.349159 0.58274  -0.6399575
 O2 0.7783 0.349163 0.58273  -0.6399575
 O2 0.471786 0.655198 0.91030  -0.6399575
 O2 0.971773 0.655186 0.91031  -0.6399575
 O2 0.443065 0.333615 0.58421  -0.6399575
 O2 0.943054 0.333607 0.58421  -0.6399575
 O1 0.357463 0.193073 0.49951  -0.7646875
 O1 0.857453 0.19306 0.49951  -0.7646875
 O2 0.442982 0.329156 0.40898  -0.6399575
 O2 0.94297 0.329154 0.40899  -0.6399575
 O2 0.471633 0.650791 0.08273  -0.6399575
 O2 0.971622 0.650793 0.08274  -0.6399575
 O2 0.278243 0.344712 0.41032  -0.6399575
 O2 0.77823 0.344683 0.41031  -0.6399575
 O2 0.306876 0.66634 0.08424  -0.6399575
 O2 0.806864 0.666328 0.08424  -0.6399575
