#======================================================================

# CRYSTAL DATA

#----------------------------------------------------------------------

data_VESTA_phase_1


_pd_phase_name                         MOF
_cell_length_a                         13.72000
_cell_length_b                         14.23600
_cell_length_c                         15.97500
_cell_angle_alpha                      90.00400
_cell_angle_beta                       89.99600
_cell_angle_gamma                      89.99000
_symmetry_space_group_name_H-M         "P 1"
_symmetry_Int_Tables_number            1

loop_
_symmetry_equiv_pos_as_xyz
   "x, y, z"

loop_
   _atom_site_label
   _atom_site_fract_x
   _atom_site_fract_y
   _atom_site_fract_z
 _atom_site_charge
 V1 0.281004 0.234259 0.99849  1.88360222222
 V1 0.781144 0.234392 0.99845  1.88360222222
 V1 0.469261 0.760959 0.49895  1.88360222222
 V1 0.969232 0.760948 0.49799  1.88360222222
 V1 0.21945 0.733343 0.4980  1.88360222222
 V1 0.719449 0.733344 0.49886  1.88360222222
 V1 0.03119 0.261952 0.99852  1.88360222222
 V1 0.531175 0.261869 0.9990  1.88360222222
 H1 0.28595 0.038677 0.81118  0.112554722222
 H1 0.786377 0.04735 0.80508  0.112554722222
 H1 0.275747 0.921304 0.69406  0.112554722222
 H1 0.776237 0.92982 0.68800  0.112554722222
 H1 0.47429 0.072147 0.80537  0.112554722222
 H1 0.975271 0.074867 0.80246  0.112554722222
 H1 0.464233 0.954609 0.6883  0.112554722222
 H1 0.965133 0.957498 0.68529  0.112554722222
 H1 0.465518 0.959363 0.31311  0.112554722222
 H1 0.965035 0.958003 0.31144  0.112554722222
 H1 0.475632 0.07533 0.1949  0.112554722222
 H1 0.975161 0.074181 0.19333  0.112554722222
 H1 0.275712 0.921755 0.30294  0.112554722222
 H1 0.774861 0.915442 0.29848  0.112554722222
 H1 0.285896 0.037896 0.1847  0.112554722222
 H1 0.785023 0.031409 0.18030  0.112554722222
 H1 0.214606 0.536265 0.68445  0.112554722222
 H1 0.714703 0.542818 0.68915  0.112554722222
 H1 0.225035 0.4204 0.80269  0.112554722222
 H1 0.724873 0.426851 0.80737  0.112554722222
 H1 0.025961 0.575205 0.69457  0.112554722222
 H1 0.524952 0.575049 0.69446  0.112554722222
 H1 0.036117 0.459235 0.81277  0.112554722222
 H1 0.535387 0.459159 0.81270  0.112554722222
 H1 0.035301 0.456033 0.18643  0.112554722222
 H1 0.535939 0.456419 0.18601  0.112554722222
 H1 0.024933 0.573586 0.3034  0.112554722222
 H1 0.525944 0.574027 0.30293  0.112554722222
 H1 0.224821 0.42285 0.19310  0.112554722222
 H1 0.725186 0.416308 0.19788  0.112554722222
 H1 0.21481 0.54047 0.31004  0.112554722222
 H1 0.714817 0.533816 0.31489  0.112554722222
 C1 0.137039 0.13315 0.88279  0.730462222222
 C1 0.636798 0.135302 0.88168  0.730462222222
 C2 0.131152 0.063633 0.81337  -0.123052777778
 C2 0.630873 0.066403 0.81185  -0.123052777778
 C3 0.216193 0.020484 0.78304  -0.0570527777778
 C3 0.716352 0.026593 0.77892  -0.0570527777778
 C3 0.210604 0.955443 0.71835  -0.0570527777778
 C3 0.71081 0.961511 0.71428  -0.0570527777778
 C3 0.040403 0.040775 0.77815  -0.0570527777778
 C3 0.539757 0.040495 0.7791  -0.0570527777778
 C3 0.034832 0.975746 0.71345  -0.0570527777778
 C3 0.534238 0.975401 0.71449  -0.0570527777778
 C2 0.119862 0.932611 0.68313  -0.123052777778
 C2 0.61968 0.93532 0.68180  -0.123052777778
 C1 0.113945 0.862908 0.61375  0.730462222222
 C1 0.613721 0.86495 0.61300  0.730462222222
 C1 0.113812 0.864123 0.3834  0.730462222222
 C1 0.613931 0.862252 0.3827  0.730462222222
 C2 0.11982 0.933245 0.3136  -0.123052777778
 C2 0.619655 0.930774 0.31247  -0.123052777778
 C3 0.034714 0.975931 0.28307  -0.0570527777778
 C3 0.534944 0.975526 0.28341  -0.0570527777778
 C3 0.040263 0.040234 0.21784  -0.0570527777778
 C3 0.540493 0.039757 0.2180  -0.0570527777778
 C3 0.210599 0.955682 0.27836  -0.0570527777778
 C3 0.709998 0.950963 0.27524  -0.0570527777778
 C3 0.216164 0.019972 0.21312  -0.0570527777778
 C3 0.715563 0.015203 0.20993  -0.0570527777778
 C2 0.131047 0.062671 0.18250  -0.123052777778
 C2 0.630884 0.060173 0.18103  -0.123052777778
 C1 0.136898 0.131679 0.11282  0.730462222222
 C1 0.636893 0.129719 0.11167  0.730462222222
 C1 0.363286 0.631295 0.61310  0.730462222222
 C1 0.863876 0.633795 0.61486  0.730462222222
 C2 0.369219 0.562404 0.68286  -0.123052777778
 C2 0.869812 0.565576 0.68515  -0.123052777778
 C3 0.284323 0.518979 0.71313  -0.0570527777778
 C3 0.784562 0.524105 0.71683  -0.0570527777778
 C3 0.290045 0.454802 0.77846  -0.0570527777778
 C3 0.790128 0.459895 0.78215  -0.0570527777778
 C3 0.459948 0.540677 0.71873  -0.0570527777778
 C3 0.960716 0.542209 0.71981  -0.0570527777778
 C3 0.465663 0.476499 0.78406  -0.0570527777778
 C3 0.966273 0.477981 0.7851  -0.0570527777778
 C2 0.380766 0.433117 0.81437  -0.123052777778
 C2 0.881054 0.436246 0.81659  -0.123052777778
 C1 0.386731 0.3643 0.8842  0.730462222222
 C1 0.887018 0.366682 0.88587  0.730462222222
 C1 0.386764 0.363027 0.11404  0.730462222222
 C1 0.886688 0.360598 0.11580  0.730462222222
 C2 0.38091 0.432754 0.18313  -0.123052777778
 C2 0.880801 0.429476 0.18559  -0.123052777778
 C3 0.466149 0.475214 0.21380  -0.0570527777778
 C3 0.965689 0.473481 0.21516  -0.0570527777778
 C3 0.460679 0.540384 0.27836  -0.0570527777778
 C3 0.96001 0.538597 0.27976  -0.0570527777778
 C3 0.290069 0.456474 0.21772  -0.0570527777778
 C3 0.790158 0.451251 0.2215  -0.0570527777778
 C3 0.284596 0.521636 0.2822  -0.0570527777778
 C3 0.784475 0.51636 0.28617  -0.0570527777778
 C2 0.369845 0.563973 0.31306  -0.123052777778
 C2 0.869324 0.560603 0.31555  -0.123052777778
 C1 0.363926 0.63329 0.38246  0.730462222222
 C1 0.86335 0.630704 0.38435  0.730462222222
 O1 0.391895 0.192842 0.99856  -0.761817777778
 O1 0.892004 0.192933 0.99680  -0.761817777778
 O2 0.221602 0.152778 0.91129  -0.639652777778
 O2 0.721445 0.156352 0.90900  -0.639652777778
 O2 0.029461 0.843648 0.58508  -0.639652777778
 O2 0.528905 0.843364 0.58647  -0.639652777778
 O2 0.056827 0.168536 0.9088  -0.639652777778
 O2 0.556332 0.168681 0.90937  -0.639652777778
 O2 0.194297 0.827347 0.58830  -0.639652777778
 O2 0.694204 0.831138 0.58606  -0.639652777778
 O1 0.358391 0.802609 0.49913  -0.761817777778
 O1 0.858392 0.802683 0.49789  -0.761817777778
 O2 0.029021 0.843243 0.41043  -0.639652777778
 O2 0.529554 0.843638 0.41203  -0.639652777778
 O2 0.221605 0.152651 0.0854  -0.639652777778
 O2 0.721372 0.149289 0.08304  -0.639652777778
 O2 0.194324 0.830631 0.41060  -0.639652777778
 O2 0.694342 0.826979 0.40832  -0.639652777778
 O2 0.056453 0.165415 0.08561  -0.639652777778
 O2 0.55658 0.165366 0.08606  -0.639652777778
 O1 0.108489 0.691881 0.49717  -0.761817777778
 O1 0.608481 0.691862 0.4997  -0.761817777778
 O2 0.278853 0.650616 0.58412  -0.639652777778
 O2 0.779149 0.654423 0.58729  -0.639652777778
 O2 0.4712 0.345024 0.91311  -0.639652777778
 O2 0.971759 0.345261 0.91285  -0.639652777778
 O2 0.44365 0.666587 0.58720  -0.639652777778
 O2 0.944309 0.667049 0.58701  -0.639652777778
 O2 0.306365 0.329008 0.91010  -0.639652777778
 O2 0.806619 0.332803 0.91307  -0.639652777778
 O1 0.141958 0.303784 0.99933  -0.761817777778
 O1 0.641839 0.303844 0.99986  -0.761817777778
 O2 0.471483 0.341637 0.08697  -0.639652777778
 O2 0.971126 0.341465 0.08683  -0.639652777778
 O2 0.279161 0.65432 0.40974  -0.639652777778
 O2 0.77889 0.650449 0.41302  -0.639652777778
 O2 0.30635 0.329147 0.08687  -0.639652777778
 O2 0.806343 0.325353 0.08984  -0.639652777778
 O2 0.444347 0.666988 0.40992  -0.639652777778
 O2 0.943667 0.666489 0.40977  -0.639652777778
