#======================================================================

# CRYSTAL DATA

#----------------------------------------------------------------------

data_VESTA_phase_1


_pd_phase_name                         MOF
_cell_length_a                         12.41600
_cell_length_b                         15.66200
_cell_length_c                         15.48300
_cell_angle_alpha                      89.97400
_cell_angle_beta                       89.98700
_cell_angle_gamma                      90.03300
_symmetry_space_group_name_H-M         "P 1"
_symmetry_Int_Tables_number            1

loop_
_symmetry_equiv_pos_as_xyz
   "x, y, z"

loop_
   _atom_site_label
   _atom_site_fract_x
   _atom_site_fract_y
   _atom_site_fract_z
 _atom_site_charge
 Cu1 0.999981 1.9e-05 1e-0  0.503531692308
 Cu1 0.499983 0.499966 0.50000  0.503531692308
 Cu2 0.1569 0.999971 0.1849  0.526621692308
 Cu2 0.843115 0.999995 0.81508  0.526621692308
 Cu2 0.343106 0.500051 0.68492  0.526621692308
 Cu2 0.656865 0.499927 0.31509  0.526621692308
 H1 0.77271 0.721304 0.08850  0.111146692308
 H1 0.667533 0.598205 0.14826  0.111146692308
 H1 0.842841 0.598387 0.37566  0.111146692308
 H1 0.957601 0.721498 0.32440  0.111146692308
 H1 0.22733 0.721476 0.91171  0.111146692308
 H1 0.332174 0.598345 0.85208  0.111146692308
 H1 0.156927 0.598707 0.62466  0.111146692308
 H1 0.042507 0.721837 0.67577  0.111146692308
 H1 0.727456 0.778607 0.58831  0.111146692308
 H1 0.832532 0.901678 0.64800  0.111146692308
 H1 0.65708 0.901347 0.87539  0.111146692308
 H1 0.542422 0.778263 0.82422  0.111146692308
 H1 0.272711 0.778513 0.41160  0.111146692308
 H1 0.167745 0.901659 0.35200  0.111146692308
 H1 0.342882 0.901494 0.12444  0.111146692308
 H1 0.4574 0.778335 0.17555  0.111146692308
 H1 0.227274 0.278809 0.9115  0.111146692308
 H1 0.332512 0.401833 0.85173  0.111146692308
 H1 0.157222 0.401597 0.62433  0.111146692308
 H1 0.042405 0.278539 0.67564  0.111146692308
 H1 0.772559 0.278549 0.08832  0.111146692308
 H1 0.667678 0.401625 0.14801  0.111146692308
 H1 0.843034 0.401309 0.37537  0.111146692308
 H1 0.957506 0.278226 0.32421  0.111146692308
 H1 0.272437 0.221195 0.41166  0.111146692308
 H1 0.167389 0.098194 0.35181  0.111146692308
 H1 0.343038 0.098643 0.12453  0.111146692308
 H1 0.457686 0.221672 0.17585  0.111146692308
 H1 0.727327 0.221299 0.58842  0.111146692308
 H1 0.832255 0.098205 0.64817  0.111146692308
 H1 0.657 0.098515 0.87565  0.111146692308
 H1 0.542507 0.221643 0.82441  0.111146692308
 C1 0.933398 0.805316 0.17129  0.317371692308
 C2 0.873666 0.731301 0.20212  0.0686116923077
 C3 0.791326 0.695035 0.15188  -0.168455807692
 C4 0.733458 0.626634 0.18468  0.139891692308
 C4 0.832567 0.627095 0.31193  0.139891692308
 C3 0.894272 0.695435 0.28354  -0.168455807692
 C1 0.066723 0.805602 0.82900  0.317371692308
 C2 0.126498 0.7317 0.79805  0.0686116923077
 C3 0.208641 0.695261 0.8483  -0.168455807692
 C4 0.266432 0.626893 0.81556  0.139891692308
 C4 0.167402 0.627434 0.6883  0.139891692308
 C3 0.105744 0.695754 0.71670  -0.168455807692
 C1 0.566758 0.694422 0.67105  0.317371692308
 C2 0.626409 0.768468 0.70191  0.0686116923077
 C3 0.708779 0.804813 0.65169  -0.168455807692
 C4 0.766632 0.873197 0.68447  0.139891692308
 C4 0.66745 0.872653 0.8116  0.139891692308
 C3 0.605755 0.804322 0.78331  -0.168455807692
 C1 0.43321 0.694482 0.32867  0.317371692308
 C2 0.373536 0.768484 0.29788  0.0686116923077
 C3 0.291316 0.804778 0.34820  -0.168455807692
 C4 0.233547 0.873204 0.31548  0.139891692308
 C4 0.332535 0.87276 0.18816  0.139891692308
 C3 0.394144 0.804393 0.21647  -0.168455807692
 C1 0.066619 0.194701 0.82871  0.317371692308
 C2 0.126353 0.268733 0.79791  0.0686116923077
 C3 0.208631 0.305063 0.84817  -0.168455807692
 C4 0.26657 0.373404 0.81532  0.139891692308
 C4 0.167472 0.372906 0.68807  0.139891692308
 C3 0.105708 0.304625 0.71651  -0.168455807692
 C1 0.933199 0.194395 0.17104  0.317371692308
 C2 0.873447 0.268326 0.20196  0.0686116923077
 C3 0.791282 0.304764 0.15168  -0.168455807692
 C4 0.733479 0.373115 0.18449  0.139891692308
 C4 0.832573 0.372593 0.31168  0.139891692308
 C3 0.894242 0.304292 0.28329  -0.168455807692
 C1 0.433291 0.305414 0.32903  0.317371692308
 C2 0.373496 0.231479 0.29807  0.0686116923077
 C3 0.29122 0.195011 0.34830  -0.168455807692
 C4 0.233309 0.126717 0.31540  0.139891692308
 C4 0.332582 0.12732 0.18823  0.139891692308
 C3 0.394348 0.195564 0.2167  -0.168455807692
 C1 0.566847 0.305474 0.67133  0.317371692308
 C2 0.626446 0.231427 0.70211  0.0686116923077
 C3 0.708699 0.195106 0.65184  -0.168455807692
 C4 0.766424 0.126688 0.68463  0.139891692308
 C4 0.667377 0.127205 0.81191  0.139891692308
 C3 0.605812 0.195574 0.78355  -0.168455807692
 N1 0.983547 0.908139 0.09274  0.0271466923077
 N1 0.040178 0.910181 0.16671  0.0271466923077
 N2 0.010308 0.846117 0.21756  -0.329423307692
 N2 0.915859 0.842807 0.09386  -0.329423307692
 N3 0.75293 0.593133 0.26352  -0.245498307692
 N1 0.016662 0.908355 0.90754  0.0271466923077
 N1 0.95977 0.910254 0.83368  0.0271466923077
 N2 0.989736 0.846354 0.78279  -0.329423307692
 N2 0.084416 0.843114 0.90638  -0.329423307692
 N3 0.246922 0.593347 0.73678  -0.245498307692
 N1 0.516635 0.591677 0.59249  0.0271466923077
 N1 0.459712 0.58972 0.66636  0.0271466923077
 N2 0.48968 0.653641 0.71726  -0.329423307692
 N2 0.58425 0.657062 0.59357  -0.329423307692
 N3 0.747101 0.906686 0.76327  -0.245498307692
 N1 0.483357 0.591719 0.40721  0.0271466923077
 N1 0.539991 0.589711 0.33320  0.0271466923077
 N2 0.510024 0.653678 0.28232  -0.329423307692
 N2 0.415777 0.65706 0.40616  -0.329423307692
 N3 0.253 0.906751 0.23664  -0.245498307692
 N1 0.016507 0.09183 0.90717  0.0271466923077
 N1 0.959961 0.089733 0.83315  0.0271466923077
 N2 0.989944 0.153765 0.78230  -0.329423307692
 N2 0.084009 0.157281 0.90619  -0.329423307692
 N3 0.247087 0.406894 0.73648  -0.245498307692
 N1 0.983278 0.091644 0.0925  0.0271466923077
 N1 0.040011 0.089623 0.16647  0.0271466923077
 N2 0.010032 0.153541 0.21734  -0.329423307692
 N2 0.915583 0.156921 0.0936  -0.329423307692
 N3 0.753008 0.406658 0.26327  -0.245498307692
 N1 0.483296 0.408251 0.40752  0.0271466923077
 N1 0.540197 0.41022 0.33363  0.0271466923077
 N2 0.510214 0.346298 0.2827  -0.329423307692
 N2 0.415623 0.342902 0.40642  -0.329423307692
 N3 0.252928 0.09323 0.23661  -0.245498307692
 N1 0.516671 0.408218 0.59280  0.0271466923077
 N1 0.460069 0.410255 0.66682  0.0271466923077
 N2 0.490004 0.346256 0.71768  -0.329423307692
 N2 0.584229 0.342855 0.59381  -0.329423307692
 N3 0.746969 0.093208 0.76349  -0.245498307692
 Cl1 0.21658 0.000222 0.03689  -0.625168307692
 Cl1 0.783405 0.999864 0.96309  -0.625168307692
 Cl1 0.283463 0.500098 0.53692  -0.625168307692
 Cl1 0.716502 0.499864 0.46309  -0.625168307692
