#======================================================================

# CRYSTAL DATA

#----------------------------------------------------------------------

data_VESTA_phase_1


_pd_phase_name                         MOF
_cell_length_a                         11.27200
_cell_length_b                         24.21700
_cell_length_c                         23.21400
_cell_angle_alpha                      98.07900
_cell_angle_beta                       90.00700
_cell_angle_gamma                      89.99900
_symmetry_space_group_name_H-M         "P 1"
_symmetry_Int_Tables_number            1

loop_
_symmetry_equiv_pos_as_xyz
   "x, y, z"

loop_
   _atom_site_label
   _atom_site_fract_x
   _atom_site_fract_y
   _atom_site_fract_z
 _atom_site_charge
 Ca1 0.145972 0.446997 0.45459  1.59342316667
 Ca1 0.145974 0.946994 0.45459  1.59342316667
 Ca1 0.645972 0.446997 0.45459  1.59342316667
 Ca1 0.645975 0.946994 0.45459  1.59342316667
 Ca1 0.395981 0.302993 0.04540  1.59342316667
 Ca1 0.395983 0.802991 0.04540  1.59342316667
 Ca1 0.895982 0.302993 0.04540  1.59342316667
 Ca1 0.895984 0.802991 0.04540  1.59342316667
 Ca1 0.354022 0.053006 0.54538  1.59342316667
 Ca1 0.354025 0.553002 0.54538  1.59342316667
 Ca1 0.854023 0.053006 0.54538  1.59342316667
 Ca1 0.854026 0.553003 0.54538  1.59342316667
 Ca1 0.104013 0.197011 0.95458  1.59342316667
 Ca1 0.104016 0.697009 0.95458  1.59342316667
 Ca1 0.604014 0.197011 0.95458  1.59342316667
 Ca1 0.604016 0.697009 0.95458  1.59342316667
 H1 0.027572 0.326622 0.52592  0.100454416667
 H1 0.027578 0.826618 0.52592  0.100454416667
 H1 0.527573 0.326622 0.52592  0.100454416667
 H1 0.527578 0.826619 0.52592  0.100454416667
 H1 0.187108 0.392552 0.58279  0.100454416667
 H1 0.187113 0.892547 0.58279  0.100454416667
 H1 0.68711 0.392552 0.58279  0.100454416667
 H1 0.687115 0.892547 0.58279  0.100454416667
 H1 0.475863 0.235128 0.55794  0.100454416667
 H1 0.47587 0.735124 0.55794  0.100454416667
 H1 0.975864 0.235127 0.55794  0.100454416667
 H1 0.975872 0.735123 0.55794  0.100454416667
 H1 0.134078 0.301747 0.61494  0.100454416667
 H1 0.134084 0.801742 0.61494  0.100454416667
 H1 0.63408 0.301747 0.61494  0.100454416667
 H1 0.634086 0.801742 0.61494  0.100454416667
 H1 0.465067 0.159988 0.66603  0.100454416667
 H1 0.465073 0.659983 0.6660  0.100454416667
 H1 0.965068 0.159988 0.6660  0.100454416667
 H1 0.965074 0.659983 0.6660  0.100454416667
 H1 0.123795 0.236413 0.70710  0.100454416667
 H1 0.1238 0.736408 0.70709  0.100454416667
 H1 0.623796 0.236413 0.70710  0.100454416667
 H1 0.623802 0.736408 0.707  0.100454416667
 H1 0.004027 0.161768 0.77260  0.100454416667
 H1 0.004032 0.661763 0.77260  0.100454416667
 H1 0.504028 0.161768 0.77260  0.100454416667
 H1 0.504033 0.661764 0.77260  0.100454416667
 H1 0.161981 0.235187 0.81276  0.100454416667
 H1 0.161984 0.735183 0.81276  0.100454416667
 H1 0.661982 0.235188 0.81276  0.100454416667
 H1 0.661985 0.735182 0.81276  0.100454416667
 H1 0.277597 0.423369 0.97402  0.100454416667
 H1 0.277599 0.923366 0.97402  0.100454416667
 H1 0.777598 0.423369 0.97402  0.100454416667
 H1 0.777601 0.923367 0.97402  0.100454416667
 H1 0.437012 0.357503 0.91723  0.100454416667
 H1 0.437016 0.857499 0.91723  0.100454416667
 H1 0.937012 0.357503 0.9172  0.100454416667
 H1 0.937016 0.857499 0.91723  0.100454416667
 H1 0.225936 0.014865 0.94198  0.100454416667
 H1 0.225937 0.514862 0.94198  0.100454416667
 H1 0.725938 0.014865 0.94198  0.100454416667
 H1 0.725938 0.514862 0.94198  0.100454416667
 H1 0.384031 0.448308 0.88507  0.100454416667
 H1 0.384033 0.948304 0.88507  0.100454416667
 H1 0.884032 0.448308 0.88507  0.100454416667
 H1 0.884033 0.948304 0.88507  0.100454416667
 H1 0.215073 0.090049 0.83394  0.100454416667
 H1 0.215077 0.590044 0.83394  0.100454416667
 H1 0.715075 0.090049 0.83394  0.100454416667
 H1 0.715079 0.590044 0.83394  0.100454416667
 H1 0.373873 0.013556 0.79281  0.100454416667
 H1 0.373877 0.513551 0.79281  0.100454416667
 H1 0.873874 0.013555 0.79281  0.100454416667
 H1 0.873878 0.51355 0.79281  0.100454416667
 H1 0.254069 0.088269 0.72738  0.100454416667
 H1 0.254074 0.588264 0.72738  0.100454416667
 H1 0.75407 0.088269 0.72738  0.100454416667
 H1 0.754075 0.588264 0.72738  0.100454416667
 H1 0.412091 0.014789 0.68716  0.100454416667
 H1 0.412097 0.514783 0.68716  0.100454416667
 H1 0.912093 0.014788 0.68716  0.100454416667
 H1 0.912098 0.514782 0.68716  0.100454416667
 H1 0.472421 0.173382 0.47405  0.100454416667
 H1 0.472427 0.673378 0.4740  0.100454416667
 H1 0.972422 0.173381 0.4740  0.100454416667
 H1 0.972428 0.673378 0.4740  0.100454416667
 H1 0.312885 0.107451 0.41718  0.100454416667
 H1 0.31289 0.607446 0.41718  0.100454416667
 H1 0.812885 0.107451 0.41718  0.100454416667
 H1 0.812891 0.607446 0.41718  0.100454416667
 H1 0.024131 0.264876 0.4420  0.100454416667
 H1 0.024139 0.764872 0.44202  0.100454416667
 H1 0.524133 0.264876 0.4420  0.100454416667
 H1 0.52414 0.764872 0.44202  0.100454416667
 H1 0.365916 0.198255 0.38503  0.100454416667
 H1 0.365921 0.69825 0.38503  0.100454416667
 H1 0.865916 0.198255 0.38503  0.100454416667
 H1 0.865923 0.69825 0.38503  0.100454416667
 H1 0.034932 0.340019 0.33394  0.100454416667
 H1 0.034938 0.840014 0.33394  0.100454416667
 H1 0.534933 0.340018 0.33394  0.100454416667
 H1 0.53494 0.840013 0.33394  0.100454416667
 H1 0.376204 0.263594 0.2928  0.100454416667
 H1 0.376209 0.763589 0.29287  0.100454416667
 H1 0.876205 0.263594 0.2928  0.100454416667
 H1 0.876211 0.763589 0.29287  0.100454416667
 H1 0.49597 0.338238 0.22737  0.100454416667
 H1 0.495975 0.838234 0.22737  0.100454416667
 H1 0.995971 0.338239 0.22737  0.100454416667
 H1 0.995975 0.838235 0.22737  0.100454416667
 H1 0.338016 0.26482 0.18721  0.100454416667
 H1 0.338019 0.764816 0.18721  0.100454416667
 H1 0.838018 0.264819 0.18721  0.100454416667
 H1 0.838021 0.764815 0.18721  0.100454416667
 H1 0.222404 0.076632 0.02594  0.100454416667
 H1 0.222406 0.57663 0.02594  0.100454416667
 H1 0.722405 0.076632 0.02594  0.100454416667
 H1 0.722407 0.576629 0.02594  0.100454416667
 H1 0.062986 0.142502 0.08273  0.100454416667
 H1 0.062989 0.642497 0.08273  0.100454416667
 H1 0.562986 0.142501 0.08273  0.100454416667
 H1 0.562991 0.642497 0.08273  0.100454416667
 H1 0.274069 0.485137 0.05799  0.100454416667
 H1 0.27407 0.985134 0.05799  0.100454416667
 H1 0.77407 0.485136 0.05799  0.100454416667
 H1 0.774071 0.985134 0.05799  0.100454416667
 H1 0.115972 0.051697 0.11490  0.100454416667
 H1 0.115974 0.551693 0.114  0.100454416667
 H1 0.615973 0.051697 0.11490  0.100454416667
 H1 0.615975 0.551692 0.114  0.100454416667
 H1 0.284923 0.409958 0.16603  0.100454416667
 H1 0.284927 0.909953 0.16603  0.100454416667
 H1 0.784925 0.409957 0.16603  0.100454416667
 H1 0.784928 0.909953 0.16603  0.100454416667
 H1 0.126123 0.486451 0.20716  0.100454416667
 H1 0.126127 0.986447 0.20716  0.100454416667
 H1 0.626124 0.486451 0.20716  0.100454416667
 H1 0.626128 0.986446 0.20716  0.100454416667
 H1 0.245925 0.411738 0.27259  0.100454416667
 H1 0.245929 0.911731 0.2725  0.100454416667
 H1 0.745926 0.411737 0.27259  0.100454416667
 H1 0.745931 0.911731 0.2725  0.100454416667
 H1 0.087902 0.485219 0.31281  0.100454416667
 H1 0.087907 0.985212 0.31281  0.100454416667
 H1 0.587903 0.485219 0.31281  0.100454416667
 H1 0.587908 0.985212 0.31281  0.100454416667
 C1 0.396303 0.419229 0.53206  0.768298166667
 C1 0.396304 0.919228 0.53206  0.768298166667
 C1 0.896303 0.41923 0.53206  0.768298166667
 C1 0.896305 0.919229 0.53207  0.768298166667
 C2 0.361298 0.36499 0.55231  -0.118481833333
 C2 0.3613 0.864984 0.55231  -0.118481833333
 C2 0.861298 0.364989 0.55231  -0.118481833333
 C2 0.861299 0.864983 0.55231  -0.118481833333
 C3 0.44199 0.320591 0.54571  -0.0383818333333
 C3 0.441996 0.820587 0.54571  -0.0383818333333
 C3 0.941991 0.32059 0.54571  -0.0383818333333
 C3 0.941997 0.820586 0.54570  -0.0383818333333
 C3 0.250417 0.358195 0.57782  -0.0383818333333
 C3 0.250422 0.85819 0.57782  -0.0383818333333
 C3 0.750418 0.358194 0.57782  -0.0383818333333
 C3 0.750423 0.858189 0.57782  -0.0383818333333
 C3 0.413054 0.269536 0.56307  -0.0383818333333
 C3 0.413063 0.769533 0.56307  -0.0383818333333
 C3 0.913056 0.269536 0.56307  -0.0383818333333
 C3 0.913066 0.769533 0.56307  -0.0383818333333
 C3 0.220523 0.307374 0.5957  -0.0383818333333
 C3 0.220531 0.80737 0.59578  -0.0383818333333
 C3 0.720526 0.307374 0.59578  -0.0383818333333
 C3 0.720534 0.807371 0.59578  -0.0383818333333
 C4 0.301455 0.263137 0.58749  -0.216086833333
 C4 0.301461 0.763132 0.58749  -0.216086833333
 C4 0.801456 0.263137 0.58749  -0.216086833333
 C4 0.801462 0.763132 0.5874  -0.216086833333
 C4 0.29303 0.198894 0.68089  -0.216086833333
 C4 0.293036 0.69889 0.68089  -0.216086833333
 C4 0.793032 0.198895 0.68089  -0.216086833333
 C4 0.793038 0.69889 0.68089  -0.216086833333
 C3 0.400405 0.17753 0.69837  -0.0383818333333
 C3 0.40041 0.677524 0.69837  -0.0383818333333
 C3 0.900405 0.177529 0.69837  -0.0383818333333
 C3 0.900411 0.677524 0.69837  -0.0383818333333
 C3 0.207561 0.220789 0.72161  -0.0383818333333
 C3 0.207565 0.720783 0.7216  -0.0383818333333
 C3 0.707562 0.220788 0.72161  -0.0383818333333
 C3 0.707568 0.720783 0.7216  -0.0383818333333
 C3 0.421535 0.178371 0.75775  -0.0383818333333
 C3 0.42154 0.678367 0.75775  -0.0383818333333
 C3 0.921536 0.178371 0.75775  -0.0383818333333
 C3 0.921541 0.678366 0.75775  -0.0383818333333
 C3 0.229155 0.22033 0.78054  -0.0383818333333
 C3 0.22916 0.720326 0.78054  -0.0383818333333
 C3 0.729157 0.220331 0.78054  -0.0383818333333
 C3 0.729161 0.720325 0.78054  -0.0383818333333
 C2 0.336334 0.199295 0.79914  -0.118481833333
 C2 0.336339 0.699293 0.79914  -0.118481833333
 C2 0.836337 0.199297 0.79914  -0.118481833333
 C2 0.83634 0.69929 0.79914  -0.118481833333
 C1 0.357224 0.19774 0.86343  0.768298166667
 C1 0.357227 0.697734 0.86343  0.768298166667
 C1 0.857225 0.197738 0.86343  0.768298166667
 C1 0.857227 0.697735 0.86343  0.768298166667
 C1 0.146274 0.330782 0.96791  0.768298166667
 C1 0.146275 0.830777 0.96790  0.768298166667
 C1 0.646275 0.330782 0.96791  0.768298166667
 C1 0.646276 0.830777 0.96790  0.768298166667
 C2 0.111264 0.385032 0.94767  -0.118481833333
 C2 0.111265 0.88503 0.9476  -0.118481833333
 C2 0.611265 0.385032 0.94767  -0.118481833333
 C2 0.611265 0.885031 0.94768  -0.118481833333
 C3 0.192002 0.429413 0.95425  -0.0383818333333
 C3 0.192004 0.92941 0.95425  -0.0383818333333
 C3 0.692003 0.429413 0.95425  -0.0383818333333
 C3 0.692005 0.929411 0.95425  -0.0383818333333
 C3 0.500362 0.391843 0.92218  -0.0383818333333
 C3 0.500365 0.891841 0.92218  -0.0383818333333
 C3 0.0 0.391844 0.92218  -0.0383818333333
 C3 0.0 0.89184 0.92218  -0.0383818333333
 C3 0.163096 0.480466 0.93687  -0.0383818333333
 C3 0.163099 0.980463 0.93687  -0.0383818333333
 C3 0.663097 0.480466 0.93687  -0.0383818333333
 C3 0.6631 0.980463 0.93687  -0.0383818333333
 C3 0.470496 0.442663 0.90421  -0.0383818333333
 C3 0.470501 0.942659 0.90421  -0.0383818333333
 C3 0.970497 0.442663 0.90421  -0.0383818333333
 C3 0.9705 0.942658 0.90421  -0.0383818333333
 C4 0.051471 0.486882 0.91247  -0.216086833333
 C4 0.051472 0.986879 0.91247  -0.216086833333
 C4 0.551472 0.486882 0.91247  -0.216086833333
 C4 0.551473 0.98688 0.91247  -0.216086833333
 C4 0.043065 0.051117 0.8190  -0.216086833333
 C4 0.043068 0.551113 0.8190  -0.216086833333
 C4 0.543066 0.051117 0.8190  -0.216086833333
 C4 0.543069 0.551114 0.8190  -0.216086833333
 C3 0.15043 0.072498 0.80159  -0.0383818333333
 C3 0.150434 0.572493 0.80159  -0.0383818333333
 C3 0.650431 0.072497 0.80159  -0.0383818333333
 C3 0.650435 0.572493 0.80159  -0.0383818333333
 C3 0.457629 0.029201 0.77832  -0.0383818333333
 C3 0.457633 0.529196 0.77832  -0.0383818333333
 C3 0.957629 0.029201 0.77832  -0.0383818333333
 C3 0.957633 0.529196 0.77832  -0.0383818333333
 C3 0.171579 0.071657 0.74222  -0.0383818333333
 C3 0.171583 0.571651 0.74222  -0.0383818333333
 C3 0.67158 0.071657 0.74222  -0.0383818333333
 C3 0.671584 0.571652 0.74222  -0.0383818333333
 C3 0.479237 0.029662 0.71939  -0.0383818333333
 C3 0.479242 0.529656 0.71939  -0.0383818333333
 C3 0.979238 0.029661 0.71939  -0.0383818333333
 C3 0.979243 0.529655 0.71939  -0.0383818333333
 C2 0.086399 0.050718 0.70082  -0.118481833333
 C2 0.086403 0.550713 0.70082  -0.118481833333
 C2 0.586399 0.050719 0.70082  -0.118481833333
 C2 0.586403 0.550714 0.70082  -0.118481833333
 C1 0.107268 0.052273 0.63653  0.768298166667
 C1 0.107271 0.552269 0.63653  0.768298166667
 C1 0.607269 0.052272 0.63653  0.768298166667
 C1 0.607271 0.552268 0.63653  0.768298166667
 C1 0.103691 0.080774 0.46791  0.768298166667
 C1 0.103693 0.580773 0.4679  0.768298166667
 C1 0.603693 0.080773 0.46791  0.768298166667
 C1 0.603694 0.580772 0.46791  0.768298166667
 C2 0.138697 0.135014 0.44766  -0.118481833333
 C2 0.138698 0.635008 0.44765  -0.118481833333
 C2 0.6387 0.135016 0.44766  -0.118481833333
 C2 0.6387 0.635009 0.44765  -0.118481833333
 C3 0.058003 0.179412 0.45426  -0.0383818333333
 C3 0.058009 0.679408 0.45426  -0.0383818333333
 C3 0.558005 0.179413 0.45426  -0.0383818333333
 C3 0.55801 0.679408 0.45426  -0.0383818333333
 C3 0.249577 0.141808 0.42215  -0.0383818333333
 C3 0.249581 0.641804 0.42215  -0.0383818333333
 C3 0.749578 0.141809 0.42215  -0.0383818333333
 C3 0.749582 0.641804 0.42215  -0.0383818333333
 C3 0.086939 0.230467 0.43690  -0.0383818333333
 C3 0.086948 0.730464 0.43690  -0.0383818333333
 C3 0.586939 0.230467 0.43690  -0.0383818333333
 C3 0.586949 0.730464 0.43690  -0.0383818333333
 C3 0.27947 0.192628 0.40419  -0.0383818333333
 C3 0.279478 0.692624 0.40419  -0.0383818333333
 C3 0.779469 0.192628 0.40419  -0.0383818333333
 C3 0.779478 0.692624 0.40419  -0.0383818333333
 C4 0.19854 0.236866 0.41248  -0.216086833333
 C4 0.198546 0.736861 0.41248  -0.216086833333
 C4 0.698542 0.236866 0.41248  -0.216086833333
 C4 0.698548 0.736862 0.41248  -0.216086833333
 C4 0.206968 0.301112 0.31908  -0.216086833333
 C4 0.206975 0.801108 0.31908  -0.216086833333
 C4 0.706969 0.301111 0.31908  -0.216086833333
 C4 0.706976 0.801107 0.31908  -0.216086833333
 C3 0.099594 0.322478 0.30160  -0.0383818333333
 C3 0.099598 0.822473 0.30160  -0.0383818333333
 C3 0.599596 0.322478 0.30160  -0.0383818333333
 C3 0.599601 0.822473 0.30160  -0.0383818333333
 C3 0.292438 0.279219 0.2783  -0.0383818333333
 C3 0.292442 0.779213 0.27836  -0.0383818333333
 C3 0.79244 0.279219 0.2783  -0.0383818333333
 C3 0.792444 0.779214 0.27836  -0.0383818333333
 C3 0.078462 0.321636 0.2422  -0.0383818333333
 C3 0.078467 0.821632 0.2422  -0.0383818333333
 C3 0.578463 0.321635 0.2422  -0.0383818333333
 C3 0.578468 0.821631 0.2422  -0.0383818333333
 C3 0.270842 0.279677 0.21943  -0.0383818333333
 C3 0.270846 0.779673 0.21943  -0.0383818333333
 C3 0.770843 0.279675 0.21943  -0.0383818333333
 C3 0.770847 0.779672 0.21943  -0.0383818333333
 C2 0.163662 0.300711 0.20083  -0.118481833333
 C2 0.163666 0.800708 0.20083  -0.118481833333
 C2 0.663661 0.300708 0.20083  -0.118481833333
 C2 0.663667 0.800706 0.20083  -0.118481833333
 C1 0.142769 0.302265 0.1365  0.768298166667
 C1 0.142772 0.802261 0.1365  0.768298166667
 C1 0.642769 0.302268 0.13655  0.768298166667
 C1 0.642772 0.802262 0.1365  0.768298166667
 C1 0.353721 0.169224 0.03207  0.768298166667
 C1 0.353722 0.66922 0.03207  0.768298166667
 C1 0.853721 0.169224 0.03207  0.768298166667
 C1 0.853723 0.66922 0.03207  0.768298166667
 C2 0.388737 0.114969 0.05229  -0.118481833333
 C2 0.388737 0.614967 0.05229  -0.118481833333
 C2 0.888737 0.11497 0.05229  -0.118481833333
 C2 0.888739 0.614967 0.05229  -0.118481833333
 C3 0.307999 0.070589 0.04572  -0.0383818333333
 C3 0.308001 0.570586 0.04572  -0.0383818333333
 C3 0.808 0.070589 0.04572  -0.0383818333333
 C3 0.808002 0.570586 0.04572  -0.0383818333333
 C3 0.999637 0.10816 0.07779  -0.0383818333333
 C3 0.99964 0.608156 0.07779  -0.0383818333333
 C3 0.499638 0.10816 0.07779  -0.0383818333333
 C3 0.499641 0.608157 0.07779  -0.0383818333333
 C3 0.336905 0.019537 0.06310  -0.0383818333333
 C3 0.336908 0.519534 0.063  -0.0383818333333
 C3 0.836907 0.019537 0.06310  -0.0383818333333
 C3 0.836908 0.519534 0.06310  -0.0383818333333
 C3 0.029504 0.057342 0.09576  -0.0383818333333
 C3 0.029506 0.557338 0.09576  -0.0383818333333
 C3 0.529504 0.057342 0.09576  -0.0383818333333
 C3 0.529508 0.557338 0.0957  -0.0383818333333
 C4 0.448532 0.013121 0.087  -0.216086833333
 C4 0.448533 0.513118 0.08749  -0.216086833333
 C4 0.948533 0.013121 0.087  -0.216086833333
 C4 0.948534 0.513118 0.08749  -0.216086833333
 C4 0.456931 0.44889 0.18092  -0.216086833333
 C4 0.456934 0.948885 0.18092  -0.216086833333
 C4 0.956932 0.44889 0.18092  -0.216086833333
 C4 0.956935 0.948886 0.18092  -0.216086833333
 C3 0.349567 0.427509 0.19838  -0.0383818333333
 C3 0.34957 0.927504 0.19838  -0.0383818333333
 C3 0.849567 0.427509 0.19838  -0.0383818333333
 C3 0.849572 0.927504 0.19838  -0.0383818333333
 C3 0.042367 0.470806 0.22165  -0.0383818333333
 C3 0.042371 0.970801 0.22165  -0.0383818333333
 C3 0.542369 0.470805 0.22165  -0.0383818333333
 C3 0.542371 0.970801 0.22165  -0.0383818333333
 C3 0.328415 0.428351 0.25775  -0.0383818333333
 C3 0.32842 0.928344 0.25775  -0.0383818333333
 C3 0.828416 0.428351 0.25775  -0.0383818333333
 C3 0.828421 0.928344 0.25775  -0.0383818333333
 C3 0.020756 0.470346 0.28058  -0.0383818333333
 C3 0.020761 0.97034 0.28058  -0.0383818333333
 C3 0.520757 0.470346 0.28058  -0.0383818333333
 C3 0.520762 0.970339 0.28058  -0.0383818333333
 C2 0.413593 0.44929 0.2991  -0.118481833333
 C2 0.413599 0.949282 0.2991  -0.118481833333
 C2 0.913595 0.449289 0.2991  -0.118481833333
 C2 0.913599 0.949284 0.2991  -0.118481833333
 C1 0.392724 0.447729 0.36344  0.768298166667
 C1 0.392727 0.947728 0.36344  0.768298166667
 C1 0.892726 0.447731 0.36344  0.768298166667
 C1 0.892728 0.947727 0.36344  0.768298166667
 S1 0.259111 0.196923 0.6059  1.15488816667
 S1 0.259118 0.696919 0.6059  1.15488816667
 S1 0.759113 0.196923 0.6059  1.15488816667
 S1 0.759119 0.696919 0.60593  1.15488816667
 S1 0.009139 0.053096 0.89401  1.15488816667
 S1 0.009141 0.553093 0.89401  1.15488816667
 S1 0.50914 0.053096 0.89401  1.15488816667
 S1 0.509142 0.553093 0.89401  1.15488816667
 S1 0.240885 0.303081 0.39404  1.15488816667
 S1 0.240891 0.803077 0.3940  1.15488816667
 S1 0.740886 0.303081 0.39404  1.15488816667
 S1 0.740892 0.803077 0.3940  1.15488816667
 S1 0.49086 0.446908 0.10596  1.15488816667
 S1 0.490862 0.946906 0.10596  1.15488816667
 S1 0.990862 0.446908 0.10596  1.15488816667
 S1 0.990863 0.946906 0.10596  1.15488816667
 O1 0.50509 0.428153 0.52474  -0.722495166667
 O1 0.50509 0.928149 0.52474  -0.722495166667
 O1 0.0 0.428152 0.52474  -0.722495166667
 O1 0.0 0.928148 0.52474  -0.722495166667
 O2 0.337438 0.155599 0.57240  -0.629301833333
 O2 0.337444 0.655594 0.57240  -0.629301833333
 O2 0.837439 0.155598 0.57240  -0.629301833333
 O2 0.837445 0.655594 0.57240  -0.629301833333
 O3 0.130733 0.192012 0.59974  -0.533221833333
 O3 0.130739 0.692008 0.59974  -0.533221833333
 O3 0.630735 0.192012 0.59974  -0.533221833333
 O3 0.63074 0.692008 0.59974  -0.533221833333
 O1 0.265573 0.199194 0.89527  -0.722495166667
 O1 0.265576 0.699191 0.89527  -0.722495166667
 O1 0.765575 0.199195 0.89527  -0.722495166667
 O1 0.765576 0.699191 0.89527  -0.722495166667
 O1 0.463976 0.194621 0.87998  -0.722495166667
 O1 0.463979 0.694618 0.87998  -0.722495166667
 O1 0.963978 0.194621 0.87998  -0.722495166667
 O1 0.96398 0.694618 0.87998  -0.722495166667
 O4 0.31252 0.453813 0.52468  -0.782341833333
 O4 0.312522 0.953811 0.52468  -0.782341833333
 O4 0.812521 0.453814 0.52468  -0.782341833333
 O4 0.812524 0.953811 0.52468  -0.782341833333
 O1 0.255063 0.321857 0.97523  -0.722495166667
 O1 0.255064 0.821855 0.9752  -0.722495166667
 O1 0.755064 0.321857 0.97523  -0.722495166667
 O1 0.755064 0.821855 0.97524  -0.722495166667
 O2 0.08747 0.094422 0.92755  -0.629301833333
 O2 0.087472 0.59442 0.92755  -0.629301833333
 O2 0.587471 0.094422 0.92755  -0.629301833333
 O2 0.587474 0.59442 0.92755  -0.629301833333
 O3 0.380763 0.058007 0.90020  -0.533221833333
 O3 0.380765 0.558005 0.90020  -0.533221833333
 O3 0.880763 0.058007 0.90020  -0.533221833333
 O3 0.880765 0.558005 0.90020  -0.533221833333
 O1 0.015603 0.050821 0.60469  -0.722495166667
 O1 0.015605 0.550818 0.60469  -0.722495166667
 O1 0.515603 0.050822 0.6046  -0.722495166667
 O1 0.515605 0.550818 0.60469  -0.722495166667
 O1 0.214013 0.055394 0.61998  -0.722495166667
 O1 0.214015 0.555391 0.61998  -0.722495166667
 O1 0.714013 0.055394 0.61998  -0.722495166667
 O1 0.714016 0.555391 0.61998  -0.722495166667
 O4 0.062498 0.296199 0.97529  -0.782341833333
 O4 0.0625 0.796195 0.97529  -0.782341833333
 O4 0.562499 0.296199 0.97529  -0.782341833333
 O4 0.562501 0.796195 0.97529  -0.782341833333
 O1 0.994904 0.071852 0.47523  -0.722495166667
 O1 0.994904 0.571848 0.47523  -0.722495166667
 O1 0.494906 0.071853 0.47523  -0.722495166667
 O1 0.494906 0.571849 0.47523  -0.722495166667
 O2 0.162557 0.344404 0.42758  -0.629301833333
 O2 0.162563 0.8444 0.42758  -0.629301833333
 O2 0.662558 0.344404 0.42758  -0.629301833333
 O2 0.662564 0.8444 0.4275  -0.629301833333
 O3 0.369262 0.307992 0.40023  -0.533221833333
 O3 0.369268 0.807988 0.40023  -0.533221833333
 O3 0.869264 0.307992 0.40023  -0.533221833333
 O3 0.869269 0.807988 0.40023  -0.533221833333
 O1 0.234417 0.30081 0.10470  -0.722495166667
 O1 0.234419 0.800807 0.10470  -0.722495166667
 O1 0.734418 0.300809 0.10470  -0.722495166667
 O1 0.73442 0.800807 0.10470  -0.722495166667
 O1 0.036015 0.305383 0.11999  -0.722495166667
 O1 0.036017 0.80538 0.11999  -0.722495166667
 O1 0.536015 0.305382 0.11999  -0.722495166667
 O1 0.536018 0.80538 0.11999  -0.722495166667
 O4 0.187472 0.04619 0.47529  -0.782341833333
 O4 0.187474 0.546187 0.47529  -0.782341833333
 O4 0.687472 0.046189 0.475  -0.782341833333
 O4 0.687475 0.546187 0.47529  -0.782341833333
 O1 0.244931 0.178144 0.02474  -0.722495166667
 O1 0.244932 0.678142 0.02474  -0.722495166667
 O1 0.744932 0.178145 0.02474  -0.722495166667
 O1 0.744933 0.678142 0.02474  -0.722495166667
 O2 0.412528 0.405581 0.07242  -0.629301833333
 O2 0.41253 0.905579 0.07242  -0.629301833333
 O2 0.912529 0.405581 0.07242  -0.629301833333
 O2 0.912531 0.905579 0.07242  -0.629301833333
 O3 0.119237 0.441996 0.0997  -0.533221833333
 O3 0.119239 0.941994 0.09977  -0.533221833333
 O3 0.619237 0.441996 0.0997  -0.533221833333
 O3 0.619239 0.941994 0.09977  -0.533221833333
 O1 0.48439 0.449184 0.39529  -0.722495166667
 O1 0.484392 0.949179 0.39529  -0.722495166667
 O1 0.984391 0.449183 0.39529  -0.722495166667
 O1 0.984393 0.94918 0.39529  -0.722495166667
 O1 0.28598 0.444611 0.37999  -0.722495166667
 O1 0.285982 0.944607 0.37999  -0.722495166667
 O1 0.785981 0.444611 0.37999  -0.722495166667
 O1 0.785983 0.944608 0.37999  -0.722495166667
 O4 0.437492 0.203807 0.02468  -0.782341833333
 O4 0.437495 0.703804 0.02468  -0.782341833333
 O4 0.937493 0.203807 0.02468  -0.782341833333
 O4 0.937495 0.703804 0.02468  -0.782341833333
