#======================================================================

# CRYSTAL DATA

#----------------------------------------------------------------------

data_VESTA_phase_1


_pd_phase_name                         MOF
_cell_length_a                         11.30700
_cell_length_b                         24.27000
_cell_length_c                         22.85200
_cell_angle_alpha                      99.33700
_cell_angle_beta                       89.98800
_cell_angle_gamma                      90.00000
_symmetry_space_group_name_H-M         "P 1"
_symmetry_Int_Tables_number            1

loop_
_symmetry_equiv_pos_as_xyz
   "x, y, z"

loop_
   _atom_site_label
   _atom_site_fract_x
   _atom_site_fract_y
   _atom_site_fract_z
 _atom_site_charge
 Ca1 0.132797 0.432474 0.77741  1.59212333333
 Ca1 0.132987 0.932407 0.77745  1.59212333333
 Ca1 0.632785 0.432474 0.77741  1.59212333333
 Ca1 0.632976 0.932407 0.77745  1.59212333333
 Ca1 0.38265 0.317064 0.72265  1.59212333333
 Ca1 0.382431 0.81703 0.72272  1.59212333333
 Ca1 0.882639 0.317065 0.72265  1.59212333333
 Ca1 0.882419 0.817031 0.72272  1.59212333333
 Ca1 0.367053 0.067597 0.2225  1.59212333333
 Ca1 0.367324 0.56752 0.22258  1.59212333333
 Ca1 0.867042 0.067597 0.2225  1.59212333333
 Ca1 0.867312 0.56752 0.22258  1.59212333333
 Ca1 0.117717 0.182993 0.27728  1.59212333333
 Ca1 0.117415 0.682912 0.27735  1.59212333333
 Ca1 0.617705 0.182994 0.27728  1.59212333333
 Ca1 0.617404 0.682913 0.27735  1.59212333333
 H1 0.319259 0.131844 0.09917  0.0997108333333
 H1 0.319229 0.631886 0.09930  0.0997108333333
 H1 0.819249 0.131844 0.09917  0.0997108333333
 H1 0.81922 0.631885 0.09930  0.0997108333333
 H1 0.365439 0.109527 0.99118  0.0997108333333
 H1 0.365152 0.609578 0.99129  0.0997108333333
 H1 0.865429 0.109528 0.99118  0.0997108333333
 H1 0.865143 0.609577 0.99129  0.0997108333333
 H1 0.019135 0.036919 0.95781  0.0997108333333
 H1 0.018751 0.537004 0.95812  0.0997108333333
 H1 0.519126 0.036919 0.95781  0.0997108333333
 H1 0.518741 0.537004 0.95812  0.0997108333333
 H1 0.474034 0.059723 0.06632  0.0997108333333
 H1 0.473936 0.559789 0.06666  0.0997108333333
 H1 0.974021 0.059723 0.06632  0.0997108333333
 H1 0.973923 0.559788 0.06666  0.0997108333333
 H1 0.366261 0.148745 0.88062  0.0997108333333
 H1 0.365836 0.648699 0.88074  0.0997108333333
 H1 0.866252 0.148745 0.88062  0.0997108333333
 H1 0.865827 0.648698 0.88074  0.0997108333333
 H1 0.324854 0.228054 0.82679  0.0997108333333
 H1 0.324576 0.727968 0.82683  0.0997108333333
 H1 0.824845 0.228053 0.82679  0.0997108333333
 H1 0.824568 0.727967 0.82683  0.0997108333333
 H1 0.483281 0.158882 0.77618  0.0997108333333
 H1 0.48296 0.658848 0.77622  0.0997108333333
 H1 0.983268 0.158882 0.77618  0.0997108333333
 H1 0.982948 0.658848 0.77622  0.0997108333333
 H1 0.026123 0.076965 0.82685  0.0997108333333
 H1 0.025642 0.576976 0.8269  0.0997108333333
 H1 0.526113 0.076965 0.82685  0.0997108333333
 H1 0.525632 0.576976 0.82699  0.0997108333333
 H1 0.069646 0.1185 0.40039  0.0997108333333
 H1 0.069246 0.618432 0.40050  0.0997108333333
 H1 0.569636 0.118503 0.40039  0.0997108333333
 H1 0.569237 0.618435 0.40050  0.0997108333333
 H1 0.115256 0.140448 0.50845  0.0997108333333
 H1 0.114919 0.640441 0.5085  0.0997108333333
 H1 0.615246 0.140451 0.50845  0.0997108333333
 H1 0.61491 0.640444 0.50855  0.0997108333333
 H1 0.268637 0.212796 0.54173  0.0997108333333
 H1 0.268335 0.712829 0.54183  0.0997108333333
 H1 0.768628 0.212799 0.54173  0.0997108333333
 H1 0.768327 0.712832 0.54183  0.0997108333333
 H1 0.224124 0.190353 0.43315  0.0997108333333
 H1 0.223774 0.690339 0.43325  0.0997108333333
 H1 0.724115 0.190356 0.43315  0.0997108333333
 H1 0.723766 0.690343 0.43325  0.0997108333333
 H1 0.115799 0.10087 0.61884  0.0997108333333
 H1 0.115513 0.600879 0.61885  0.0997108333333
 H1 0.615788 0.100871 0.61884  0.0997108333333
 H1 0.615502 0.60088 0.61885  0.0997108333333
 H1 0.07489 0.02157 0.67274  0.0997108333333
 H1 0.074543 0.521556 0.67272  0.0997108333333
 H1 0.574879 0.02157 0.67274  0.0997108333333
 H1 0.574532 0.521556 0.67272  0.0997108333333
 H1 0.233105 0.090437 0.72352  0.0997108333333
 H1 0.232798 0.590459 0.72352  0.0997108333333
 H1 0.733095 0.090438 0.72352  0.0997108333333
 H1 0.732788 0.59046 0.72352  0.0997108333333
 H1 0.275427 0.172354 0.67279  0.0997108333333
 H1 0.275178 0.672395 0.67282  0.0997108333333
 H1 0.775417 0.172355 0.67279  0.0997108333333
 H1 0.775168 0.672396 0.67282  0.0997108333333
 H1 0.18092 0.36812 0.90070  0.0997108333333
 H1 0.180817 0.868144 0.90080  0.0997108333333
 H1 0.68091 0.368121 0.90070  0.0997108333333
 H1 0.680809 0.868142 0.90080  0.0997108333333
 H1 0.135004 0.390439 0.00871  0.0997108333333
 H1 0.134663 0.890445 0.00879  0.0997108333333
 H1 0.634995 0.390439 0.00871  0.0997108333333
 H1 0.634655 0.890444 0.00879  0.0997108333333
 H1 0.481406 0.463016 0.04186  0.0997108333333
 H1 0.480977 0.963046 0.04215  0.0997108333333
 H1 0.981397 0.463016 0.04186  0.0997108333333
 H1 0.980967 0.963047 0.04215  0.0997108333333
 H1 0.026211 0.440226 0.93333  0.0997108333333
 H1 0.026058 0.940254 0.93364  0.0997108333333
 H1 0.526198 0.440226 0.93333  0.0997108333333
 H1 0.526046 0.940252 0.93364  0.0997108333333
 H1 0.134356 0.351313 0.11924  0.0997108333333
 H1 0.13383 0.851238 0.11936  0.0997108333333
 H1 0.634348 0.351313 0.11924  0.0997108333333
 H1 0.633821 0.851238 0.11936  0.0997108333333
 H1 0.175614 0.272049 0.17316  0.0997108333333
 H1 0.175212 0.771932 0.17319  0.0997108333333
 H1 0.675606 0.272049 0.17316  0.0997108333333
 H1 0.675203 0.771932 0.17319  0.0997108333333
 H1 0.017218 0.341181 0.22378  0.0997108333333
 H1 0.016794 0.841093 0.22381  0.0997108333333
 H1 0.517206 0.34118 0.22378  0.0997108333333
 H1 0.516781 0.841093 0.22381  0.0997108333333
 H1 0.474539 0.423045 0.17300  0.0997108333333
 H1 0.473971 0.923009 0.17314  0.0997108333333
 H1 0.974529 0.423045 0.17300  0.0997108333333
 H1 0.973962 0.923009 0.17314  0.0997108333333
 H1 0.430866 0.381545 0.59950  0.0997108333333
 H1 0.430534 0.881493 0.59958  0.0997108333333
 H1 0.930856 0.381547 0.59950  0.0997108333333
 H1 0.930525 0.881495 0.59958  0.0997108333333
 H1 0.38523 0.359539 0.49143  0.0997108333333
 H1 0.384904 0.859538 0.49152  0.0997108333333
 H1 0.88522 0.359542 0.49143  0.0997108333333
 H1 0.884895 0.859541 0.49152  0.0997108333333
 H1 0.231824 0.287155 0.45819  0.0997108333333
 H1 0.231515 0.787183 0.45824  0.0997108333333
 H1 0.731816 0.287157 0.45819  0.0997108333333
 H1 0.731507 0.787186 0.45824  0.0997108333333
 H1 0.276343 0.309637 0.56677  0.0997108333333
 H1 0.276044 0.809632 0.56682  0.0997108333333
 H1 0.776334 0.30964 0.56677  0.0997108333333
 H1 0.776036 0.809635 0.56682  0.0997108333333
 H1 0.38466 0.399115 0.38116  0.0997108333333
 H1 0.384296 0.89911 0.38115  0.0997108333333
 H1 0.884648 0.399116 0.38116  0.0997108333333
 H1 0.884285 0.89911 0.38115  0.0997108333333
 H1 0.42561 0.478439 0.32729  0.0997108333333
 H1 0.425173 0.978415 0.32724  0.0997108333333
 H1 0.9256 0.47844 0.32729  0.0997108333333
 H1 0.925162 0.978416 0.3272  0.0997108333333
 H1 0.267365 0.40955 0.27649  0.0997108333333
 H1 0.266966 0.909568 0.27645  0.0997108333333
 H1 0.767355 0.40955 0.27649  0.0997108333333
 H1 0.766955 0.909568 0.27645  0.0997108333333
 H1 0.225008 0.327615 0.32719  0.0997108333333
 H1 0.224674 0.827645 0.32718  0.0997108333333
 H1 0.724999 0.327615 0.327  0.0997108333333
 H1 0.724664 0.827645 0.32718  0.0997108333333
 C1 0.113779 0.110038 0.1541  0.763230833333
 C1 0.11393 0.610029 0.15438  0.763230833333
 C1 0.613769 0.110038 0.15413  0.763230833333
 C1 0.61392 0.61003 0.15438  0.763230833333
 C2 0.143345 0.096966 0.08919  -0.109211666667
 C2 0.143314 0.597006 0.08942  -0.109211666667
 C2 0.643335 0.096966 0.08919  -0.109211666667
 C2 0.643304 0.597005 0.08942  -0.109211666667
 C3 0.253615 0.111412 0.06805  -0.0385466666667
 C3 0.253522 0.611456 0.06822  -0.0385466666667
 C3 0.753606 0.111412 0.06805  -0.0385466666667
 C3 0.753513 0.611455 0.06822  -0.0385466666667
 C3 0.279589 0.098961 0.00771  -0.0385466666667
 C3 0.279344 0.599012 0.00786  -0.0385466666667
 C3 0.779579 0.098961 0.00771  -0.0385466666667
 C3 0.779335 0.599012 0.00786  -0.0385466666667
 C4 0.195342 0.071328 0.96870  -0.220131666667
 C4 0.195012 0.571385 0.96890  -0.220131666667
 C4 0.695333 0.071328 0.96870  -0.220131666667
 C4 0.695002 0.571384 0.96890  -0.220131666667
 C3 0.084227 0.057614 0.98891  -0.0385466666667
 C3 0.083934 0.55769 0.9891  -0.0385466666667
 C3 0.584217 0.057613 0.98891  -0.0385466666667
 C3 0.583924 0.55769 0.9891  -0.0385466666667
 C3 0.059078 0.070702 0.04921  -0.0385466666667
 C3 0.058933 0.57077 0.04949  -0.0385466666667
 C3 0.559068 0.070702 0.04921  -0.0385466666667
 C3 0.558923 0.57077 0.04949  -0.0385466666667
 C4 0.19783 0.108879 0.85730  -0.220131666667
 C4 0.197373 0.608866 0.85744  -0.220131666667
 C4 0.697821 0.108879 0.85730  -0.220131666667
 C4 0.697363 0.608866 0.85744  -0.220131666667
 C3 0.281948 0.151396 0.85831  -0.0385466666667
 C3 0.281543 0.651356 0.85841  -0.0385466666667
 C3 0.781938 0.151396 0.8583  -0.0385466666667
 C3 0.781534 0.651356 0.85841  -0.0385466666667
 C3 0.258375 0.195868 0.82854  -0.0385466666667
 C3 0.258057 0.695803 0.82860  -0.0385466666667
 C3 0.758365 0.195868 0.82854  -0.0385466666667
 C3 0.758048 0.695803 0.82860  -0.0385466666667
 C2 0.150323 0.19885 0.79909  -0.109211666667
 C2 0.150035 0.698792 0.79913  -0.109211666667
 C2 0.650313 0.19885 0.79909  -0.109211666667
 C2 0.650025 0.698792 0.79913  -0.109211666667
 C3 0.066484 0.156361 0.79951  -0.0385466666667
 C3 0.066142 0.656327 0.79957  -0.0385466666667
 C3 0.566474 0.156361 0.79951  -0.0385466666667
 C3 0.566132 0.656327 0.79957  -0.0385466666667
 C3 0.089728 0.110811 0.82798  -0.0385466666667
 C3 0.089299 0.610799 0.82809  -0.0385466666667
 C3 0.589719 0.110812 0.82798  -0.0385466666667
 C3 0.589289 0.6108 0.82809  -0.0385466666667
 C1 0.126202 0.24667 0.7655  0.763230833333
 C1 0.125989 0.746611 0.76556  0.763230833333
 C1 0.626192 0.24667 0.7655  0.763230833333
 C1 0.625979 0.746611 0.76556  0.763230833333
 C1 0.364191 0.140383 0.34534  0.763230833333
 C1 0.363891 0.64032 0.3454  0.763230833333
 C1 0.86418 0.140382 0.34534  0.763230833333
 C1 0.86388 0.640321 0.34546  0.763230833333
 C2 0.393585 0.153268 0.41031  -0.109211666667
 C2 0.393227 0.653232 0.41042  -0.109211666667
 C2 0.893575 0.153268 0.41031  -0.109211666667
 C2 0.893215 0.653232 0.41042  -0.109211666667
 C3 0.003799 0.138801 0.43149  -0.0385466666667
 C3 0.003435 0.638759 0.43160  -0.0385466666667
 C3 0.503789 0.138802 0.43149  -0.0385466666667
 C3 0.503425 0.638761 0.43160  -0.0385466666667
 C3 0.029451 0.151048 0.49188  -0.0385466666667
 C3 0.029118 0.651039 0.49198  -0.0385466666667
 C3 0.529441 0.15105 0.49188  -0.0385466666667
 C3 0.529108 0.651041 0.49198  -0.0385466666667
 C4 0.444985 0.178498 0.53092  -0.220131666667
 C4 0.444677 0.678522 0.53101  -0.220131666667
 C4 0.944975 0.178498 0.53092  -0.220131666667
 C4 0.944666 0.678523 0.53101  -0.220131666667
 C3 0.333936 0.192226 0.51065  -0.0385466666667
 C3 0.333617 0.692245 0.51075  -0.0385466666667
 C3 0.833926 0.192228 0.51065  -0.0385466666667
 C3 0.833608 0.692247 0.51075  -0.0385466666667
 C3 0.30909 0.179343 0.45030  -0.0385466666667
 C3 0.308743 0.679334 0.45040  -0.0385466666667
 C3 0.80908 0.179345 0.45030  -0.0385466666667
 C3 0.808733 0.679335 0.45040  -0.0385466666667
 C4 0.44725 0.14063 0.64226  -0.220131666667
 C4 0.446998 0.640659 0.6423  -0.220131666667
 C4 0.947239 0.14063 0.64226  -0.220131666667
 C4 0.946987 0.640659 0.6423  -0.220131666667
 C3 0.031538 0.098165 0.64120  -0.0385466666667
 C3 0.031257 0.59818 0.64122  -0.0385466666667
 C3 0.531527 0.098166 0.64120  -0.0385466666667
 C3 0.531245 0.59818 0.64122  -0.0385466666667
 C3 0.008248 0.053688 0.67101  -0.0385466666667
 C3 0.007937 0.553694 0.67101  -0.0385466666667
 C3 0.508237 0.053688 0.67101  -0.0385466666667
 C3 0.507925 0.553694 0.67101  -0.0385466666667
 C2 0.40032 0.050623 0.7005  -0.109211666667
 C2 0.40001 0.550643 0.7005  -0.109211666667
 C2 0.900308 0.050623 0.70058  -0.109211666667
 C2 0.899999 0.550643 0.7005  -0.109211666667
 C3 0.316239 0.093008 0.7001  -0.0385466666667
 C3 0.315942 0.593035 0.70015  -0.0385466666667
 C3 0.816229 0.093009 0.7001  -0.0385466666667
 C3 0.815931 0.593035 0.70015  -0.0385466666667
 C3 0.33921 0.138575 0.67163  -0.0385466666667
 C3 0.338943 0.638608 0.67166  -0.0385466666667
 C3 0.8392 0.138575 0.67163  -0.0385466666667
 C3 0.838933 0.638609 0.6716  -0.0385466666667
 C1 0.376748 0.002856 0.73433  0.763230833333
 C1 0.376402 0.502889 0.73433  0.763230833333
 C1 0.876736 0.002856 0.73433  0.763230833333
 C1 0.876391 0.502889 0.73433  0.763230833333
 C1 0.386185 0.38997 0.84561  0.763230833333
 C1 0.38624 0.889964 0.84582  0.763230833333
 C1 0.886175 0.389971 0.84561  0.763230833333
 C1 0.886229 0.889964 0.84582  0.763230833333
 C2 0.356827 0.403006 0.91057  -0.109211666667
 C2 0.35673 0.90302 0.91077  -0.109211666667
 C2 0.856818 0.403005 0.91057  -0.109211666667
 C2 0.85672 0.90302 0.91077  -0.109211666667
 C3 0.246624 0.388556 0.93178  -0.0385466666667
 C3 0.246467 0.88857 0.93192  -0.0385466666667
 C3 0.746615 0.388555 0.93178  -0.0385466666667
 C3 0.746458 0.888569 0.93192  -0.0385466666667
 C3 0.220808 0.401004 0.99213  -0.0385466666667
 C3 0.220509 0.901013 0.99226  -0.0385466666667
 C3 0.720798 0.401004 0.99213  -0.0385466666667
 C3 0.7205 0.901012 0.99226  -0.0385466666667
 C4 0.305141 0.428635 0.03109  -0.220131666667
 C4 0.304763 0.928642 0.03127  -0.220131666667
 C4 0.805132 0.428635 0.03109  -0.220131666667
 C4 0.804753 0.928642 0.03127  -0.220131666667
 C3 0.416218 0.442329 0.01081  -0.0385466666667
 C3 0.415876 0.942355 0.01105  -0.0385466666667
 C3 0.916209 0.442329 0.01081  -0.0385466666667
 C3 0.915866 0.942356 0.01105  -0.0385466666667
 C3 0.441213 0.429245 0.95049  -0.0385466666667
 C3 0.441012 0.929272 0.95075  -0.0385466666667
 C3 0.941204 0.429245 0.95049  -0.0385466666667
 C3 0.941002 0.929273 0.95075  -0.0385466666667
 C4 0.302809 0.39115 0.14255  -0.220131666667
 C4 0.302267 0.891099 0.14268  -0.220131666667
 C4 0.8028 0.39115 0.14255  -0.220131666667
 C4 0.802258 0.891099 0.14268  -0.220131666667
 C3 0.218644 0.348658 0.14157  -0.0385466666667
 C3 0.218142 0.848585 0.1416  -0.0385466666667
 C3 0.718635 0.348658 0.14157  -0.0385466666667
 C3 0.718133 0.848585 0.14167  -0.0385466666667
 C3 0.242126 0.304216 0.17139  -0.0385466666667
 C3 0.241701 0.804114 0.1714  -0.0385466666667
 C3 0.742118 0.304216 0.17139  -0.0385466666667
 C3 0.741692 0.804114 0.17144  -0.0385466666667
 C2 0.350136 0.301236 0.20088  -0.109211666667
 C2 0.349745 0.801128 0.20090  -0.109211666667
 C2 0.850126 0.301236 0.20088  -0.109211666667
 C2 0.849735 0.801128 0.20090  -0.109211666667
 C3 0.434035 0.343698 0.20042  -0.0385466666667
 C3 0.433593 0.843614 0.2004  -0.0385466666667
 C3 0.934025 0.343698 0.20042  -0.0385466666667
 C3 0.933583 0.843614 0.20048  -0.0385466666667
 C3 0.410882 0.389222 0.17190  -0.0385466666667
 C3 0.410361 0.889164 0.17201  -0.0385466666667
 C3 0.910872 0.389222 0.17190  -0.0385466666667
 C3 0.910352 0.889164 0.17201  -0.0385466666667
 C1 0.374155 0.253418 0.23445  0.763230833333
 C1 0.373838 0.753306 0.23446  0.763230833333
 C1 0.874145 0.253417 0.23445  0.763230833333
 C1 0.873828 0.753306 0.23446  0.763230833333
 C1 0.136178 0.359662 0.65455  0.763230833333
 C1 0.135946 0.859616 0.6546  0.763230833333
 C1 0.636167 0.359662 0.65455  0.763230833333
 C1 0.635935 0.859617 0.6546  0.763230833333
 C2 0.106884 0.346748 0.58958  -0.109211666667
 C2 0.106586 0.846724 0.58966  -0.109211666667
 C2 0.606873 0.346747 0.58958  -0.109211666667
 C2 0.606574 0.846724 0.58966  -0.109211666667
 C3 0.496685 0.361219 0.56839  -0.0385466666667
 C3 0.496372 0.861191 0.5684  -0.0385466666667
 C3 0.996674 0.361221 0.56839  -0.0385466666667
 C3 0.996361 0.861192 0.5684  -0.0385466666667
 C3 0.471025 0.348942 0.5080  -0.0385466666667
 C3 0.470711 0.848939 0.50809  -0.0385466666667
 C3 0.971014 0.348944 0.5080  -0.0385466666667
 C3 0.9707 0.848941 0.50809  -0.0385466666667
 C4 0.055481 0.321463 0.46899  -0.220131666667
 C4 0.055171 0.821487 0.46905  -0.220131666667
 C4 0.555471 0.321463 0.46899  -0.220131666667
 C4 0.55516 0.821487 0.46905  -0.220131666667
 C3 0.166532 0.307738 0.48926  -0.0385466666667
 C3 0.166222 0.807756 0.48931  -0.0385466666667
 C3 0.666523 0.307739 0.48926  -0.0385466666667
 C3 0.666212 0.807758 0.48931  -0.0385466666667
 C3 0.191383 0.320646 0.54962  -0.0385466666667
 C3 0.191077 0.820643 0.54967  -0.0385466666667
 C3 0.691373 0.320647 0.54962  -0.0385466666667
 C3 0.691068 0.820645 0.54967  -0.0385466666667
 C4 0.053176 0.359342 0.35771  -0.220131666667
 C4 0.052849 0.85936 0.35772  -0.220131666667
 C4 0.553165 0.359342 0.3577  -0.220131666667
 C4 0.552838 0.85936 0.35772  -0.220131666667
 C3 0.468912 0.401818 0.35879  -0.0385466666667
 C3 0.468551 0.90182 0.35878  -0.0385466666667
 C3 0.968901 0.401818 0.35879  -0.0385466666667
 C3 0.968539 0.90182 0.35878  -0.0385466666667
 C3 0.49222 0.446303 0.32900  -0.0385466666667
 C3 0.491821 0.946299 0.32897  -0.0385466666667
 C3 0.992209 0.446303 0.32900  -0.0385466666667
 C3 0.99181 0.946299 0.32897  -0.0385466666667
 C2 0.100141 0.449357 0.29942  -0.109211666667
 C2 0.099743 0.949372 0.299  -0.109211666667
 C2 0.60013 0.449357 0.29942  -0.109211666667
 C2 0.599732 0.949372 0.299  -0.109211666667
 C3 0.184221 0.40697 0.29986  -0.0385466666667
 C3 0.183835 0.906991 0.29984  -0.0385466666667
 C3 0.68421 0.40697 0.29986  -0.0385466666667
 C3 0.683825 0.906991 0.29984  -0.0385466666667
 C3 0.161233 0.361397 0.32835  -0.0385466666667
 C3 0.160883 0.861422 0.32834  -0.0385466666667
 C3 0.661223 0.361398 0.32835  -0.0385466666667
 C3 0.660872 0.861422 0.32834  -0.0385466666667
 C1 0.123723 0.497106 0.26567  0.763230833333
 C1 0.123288 0.997144 0.26565  0.763230833333
 C1 0.623712 0.497105 0.2656  0.763230833333
 C1 0.623276 0.997143 0.26565  0.763230833333
 S1 0.233696 0.051052 0.89263  1.15715833333
 S1 0.233276 0.55107 0.89281  1.15715833333
 S1 0.733686 0.051052 0.89263  1.15715833333
 S1 0.733266 0.55107 0.89281  1.15715833333
 S1 0.483039 0.198597 0.60708  1.15715833333
 S1 0.482802 0.698627 0.60715  1.15715833333
 S1 0.983029 0.198597 0.60708  1.15715833333
 S1 0.982791 0.698627 0.60715  1.15715833333
 S1 0.266865 0.44894 0.10718  1.15715833333
 S1 0.2664 0.948921 0.10734  1.15715833333
 S1 0.766856 0.44894 0.10718  1.15715833333
 S1 0.766391 0.948921 0.10734  1.15715833333
 S1 0.017366 0.301369 0.39285  1.15715833333
 S1 0.017079 0.801391 0.392  1.15715833333
 S1 0.517355 0.301368 0.39285  1.15715833333
 S1 0.517068 0.801391 0.392  1.15715833333
 O1 0.199433 0.119255 0.19127  -0.784841666667
 O1 0.199623 0.619124 0.19149  -0.784841666667
 O1 0.699423 0.119256 0.19127  -0.784841666667
 O1 0.699612 0.619125 0.19149  -0.784841666667
 O2 0.005869 0.113629 0.16929  -0.720705
 O2 0.00604 0.613729 0.16959  -0.720705
 O2 0.505859 0.113629 0.16929  -0.720705
 O2 0.50603 0.613728 0.16959  -0.720705
 O2 0.01831 0.258242 0.75767  -0.720705
 O2 0.018105 0.75819 0.7576  -0.720705
 O2 0.518299 0.258243 0.75767  -0.720705
 O2 0.518094 0.758189 0.7576  -0.720705
 O3 0.154764 0.004454 0.86913  -0.626171666667
 O3 0.154415 0.504434 0.86935  -0.626171666667
 O3 0.654753 0.004454 0.86913  -0.626171666667
 O3 0.654405 0.504434 0.86935  -0.626171666667
 O2 0.215338 0.270693 0.74748  -0.720705
 O2 0.215154 0.770633 0.74752  -0.720705
 O2 0.715328 0.270694 0.74748  -0.720705
 O2 0.715143 0.770633 0.74752  -0.720705
 O4 0.361592 0.043731 0.88971  -0.533241666667
 O4 0.361173 0.543769 0.88984  -0.533241666667
 O4 0.861583 0.043731 0.88971  -0.533241666667
 O4 0.861163 0.543768 0.88984  -0.533241666667
 O1 0.4498 0.131585 0.30815  -0.784841666667
 O1 0.449588 0.631466 0.30831  -0.784841666667
 O1 0.949789 0.131585 0.30815  -0.784841666667
 O1 0.949577 0.631465 0.30831  -0.784841666667
 O2 0.256264 0.136483 0.33021  -0.720705
 O2 0.255999 0.636466 0.33028  -0.720705
 O2 0.756252 0.136484 0.33021  -0.720705
 O2 0.755987 0.636466 0.33028  -0.720705
 O2 0.268682 0.491093 0.74229  -0.720705
 O2 0.269039 0.991014 0.74229  -0.720705
 O2 0.768671 0.491093 0.74229  -0.720705
 O2 0.769027 0.991014 0.74229  -0.720705
 O3 0.404037 0.245149 0.63067  -0.626171666667
 O3 0.403828 0.74518 0.63076  -0.626171666667
 O3 0.904027 0.245149 0.63067  -0.626171666667
 O3 0.903817 0.74518 0.63076  -0.626171666667
 O2 0.465842 0.479169 0.75249  -0.720705
 O2 0.466218 0.979159 0.75248  -0.720705
 O2 0.965831 0.479169 0.75249  -0.720705
 O2 0.966207 0.979159 0.75248  -0.720705
 O4 0.110913 0.20602 0.61012  -0.533241666667
 O4 0.110683 0.706031 0.61015  -0.533241666667
 O4 0.610901 0.20602 0.61012  -0.533241666667
 O4 0.610671 0.706031 0.61015  -0.533241666667
 O1 0.300473 0.380866 0.80851  -0.784841666667
 O1 0.300553 0.880773 0.80870  -0.784841666667
 O1 0.800462 0.380868 0.80851  -0.784841666667
 O1 0.800543 0.880773 0.80870  -0.784841666667
 O2 0.494068 0.38627 0.83039  -0.720705
 O2 0.494132 0.886352 0.83063  -0.720705
 O2 0.994057 0.386269 0.83039  -0.720705
 O2 0.994122 0.886353 0.83063  -0.720705
 O2 0.482039 0.241853 0.2423  -0.720705
 O2 0.48172 0.741716 0.24232  -0.720705
 O2 0.982029 0.241853 0.2423  -0.720705
 O2 0.981709 0.741715 0.24232  -0.720705
 O3 0.34568 0.495591 0.13065  -0.626171666667
 O3 0.345303 0.995531 0.1308  -0.626171666667
 O3 0.84567 0.495591 0.13065  -0.626171666667
 O3 0.845293 0.995531 0.13084  -0.626171666667
 O2 0.284972 0.229391 0.25247  -0.720705
 O2 0.284679 0.729301 0.25252  -0.720705
 O2 0.784961 0.229391 0.25247  -0.720705
 O2 0.784668 0.729302 0.25252  -0.720705
 O4 0.138962 0.456217 0.11014  -0.533241666667
 O4 0.138503 0.956235 0.11026  -0.533241666667
 O4 0.638952 0.456216 0.11014  -0.533241666667
 O4 0.638494 0.956235 0.11026  -0.533241666667
 O1 0.05046 0.368518 0.69169  -0.784841666667
 O1 0.0503 0.868429 0.69180  -0.784841666667
 O1 0.550449 0.368517 0.69169  -0.784841666667
 O1 0.550289 0.868429 0.69180  -0.784841666667
 O2 0.244064 0.363524 0.66974  -0.720705
 O2 0.24386 0.863508 0.66978  -0.720705
 O2 0.744052 0.363524 0.66974  -0.720705
 O2 0.743848 0.863508 0.66978  -0.720705
 O2 0.23099 0.008995 0.25769  -0.720705
 O2 0.231441 0.508905 0.25771  -0.720705
 O2 0.730979 0.008995 0.25769  -0.720705
 O2 0.73143 0.508906 0.25771  -0.720705
 O3 0.096351 0.254822 0.36923  -0.626171666667
 O3 0.096071 0.754841 0.36929  -0.626171666667
 O3 0.596341 0.254822 0.36923  -0.626171666667
 O3 0.59606 0.754841 0.36929  -0.626171666667
 O2 0.033803 0.020837 0.24751  -0.720705
 O2 0.03427 0.52082 0.24751  -0.720705
 O2 0.533792 0.020837 0.24751  -0.720705
 O2 0.534259 0.520821 0.24751  -0.720705
 O4 0.389483 0.293962 0.38985  -0.533241666667
 O4 0.389205 0.793969 0.38987  -0.533241666667
 O4 0.889471 0.293961 0.38985  -0.533241666667
 O4 0.889192 0.793969 0.38987  -0.533241666667
