#======================================================================

# CRYSTAL DATA

#----------------------------------------------------------------------

data_VESTA_phase_1


_pd_phase_name                         MOF
_cell_length_a                         18.42400
_cell_length_b                         18.43300
_cell_length_c                         18.43300
_cell_angle_alpha                      60.14400
_cell_angle_beta                       60.15400
_cell_angle_gamma                      60.15600
_symmetry_space_group_name_H-M         "P 1"
_symmetry_Int_Tables_number            1

loop_
_symmetry_equiv_pos_as_xyz
   "x, y, z"

loop_
   _atom_site_label
   _atom_site_fract_x
   _atom_site_fract_y
   _atom_site_fract_z
 _atom_site_charge
 Zn1 0.206606 0.380468 0.20672  1.11855221698
 Zn1 0.380481 0.20664 0.20664  1.11855221698
 Zn1 0.206376 0.206359 0.20634  1.11855221698
 Zn1 0.206611 0.206729 0.38047  1.11855221698
 Zn1 0.619554 0.793342 0.79333  1.11855221698
 Zn1 0.793428 0.619514 0.79325  1.11855221698
 Zn1 0.793659 0.793623 0.79363  1.11855221698
 Zn1 0.793423 0.793253 0.61950  1.11855221698
 H1 0.048198 0.568045 0.0486  0.115128883648
 H1 0.568132 0.04792 0.33565  0.115128883648
 H1 0.048045 0.335675 0.04752  0.115128883648
 H1 0.335626 0.048359 0.5681  0.115128883648
 H1 0.04805 0.047533 0.33566  0.115128883648
 H1 0.568125 0.33566 0.04792  0.115128883648
 H1 0.048208 0.048616 0.56804  0.115128883648
 H1 0.335624 0.568167 0.04835  0.115128883648
 H1 0.048164 0.335661 0.56814  0.115128883648
 H1 0.568156 0.048365 0.04836  0.115128883648
 H1 0.04816 0.568145 0.33565  0.115128883648
 H1 0.33563 0.047791 0.04777  0.115128883648
 H1 0.431879 0.951619 0.95161  0.115128883648
 H1 0.951876 0.431837 0.66432  0.115128883648
 H1 0.664405 0.952192 0.95220  0.115128883648
 H1 0.951872 0.664321 0.43183  0.115128883648
 H1 0.951984 0.95245 0.66431  0.115128883648
 H1 0.664411 0.431816 0.95162  0.115128883648
 H1 0.951826 0.951366 0.43193  0.115128883648
 H1 0.43191 0.664322 0.95205  0.115128883648
 H1 0.664409 0.951626 0.4318  0.115128883648
 H1 0.951838 0.431938 0.95134  0.115128883648
 H1 0.431903 0.952064 0.66432  0.115128883648
 H1 0.95199 0.664307 0.9524  0.115128883648
 C1 0.026701 0.538995 0.02694  -0.0596706996855
 C1 0.539075 0.026545 0.40764  -0.0596706996855
 C1 0.02661 0.407659 0.02632  -0.0596706996855
 C1 0.407639 0.026788 0.53908  -0.0596706996855
 C1 0.026614 0.026327 0.40765  -0.0596706996855
 C1 0.53907 0.407649 0.02655  -0.0596706996855
 C1 0.026709 0.026936 0.53899  -0.0596706996855
 C1 0.407638 0.539084 0.0267  -0.0596706996855
 C1 0.026684 0.407649 0.5390  -0.0596706996855
 C1 0.539052 0.026799 0.02680  -0.0596706996855
 C1 0.026682 0.539068 0.40764  -0.0596706996855
 C1 0.407644 0.026473 0.02646  -0.0596706996855
 C1 0.460983 0.973185 0.97317  -0.0596706996855
 C1 0.973356 0.460914 0.59233  -0.0596706996855
 C1 0.592391 0.973511 0.97350  -0.0596706996855
 C1 0.973353 0.592333 0.4609  -0.0596706996855
 C1 0.973422 0.973654 0.59232  -0.0596706996855
 C1 0.592397 0.460898 0.9731  -0.0596706996855
 C1 0.973326 0.973045 0.46098  -0.0596706996855
 C1 0.460965 0.592334 0.97342  -0.0596706996855
 C1 0.592396 0.973198 0.46089  -0.0596706996855
 C1 0.973335 0.460987 0.97303  -0.0596706996855
 C1 0.46096 0.973441 0.59233  -0.0596706996855
 C1 0.973426 0.592324 0.97365  -0.0596706996855
 C2 0.110971 0.388957 0.11096  0.712069716981
 C3 0.053659 0.446313 0.05361  -0.124915283019
 C2 0.389035 0.111122 0.38911  0.712069716981
 C3 0.446367 0.05369 0.44640  -0.124915283019
 C2 0.11099 0.110955 0.38895  0.712069716981
 C3 0.053663 0.053616 0.4463  -0.124915283019
 C2 0.38903 0.389114 0.11114  0.712069716981
 C3 0.446364 0.446407 0.05368  -0.124915283019
 C2 0.111118 0.389098 0.38909  0.712069716981
 C3 0.053707 0.446391 0.4463  -0.124915283019
 C2 0.388972 0.110959 0.11095  0.712069716981
 C3 0.446324 0.053642 0.05362  -0.124915283019
 C2 0.611063 0.889021 0.8890  0.712069716981
 C3 0.553711 0.946344 0.94635  -0.124915283019
 C2 0.888914 0.610884 0.61088  0.712069716981
 C3 0.946331 0.553591 0.5535  -0.124915283019
 C2 0.889041 0.88903 0.61102  0.712069716981
 C3 0.946374 0.946363 0.5536  -0.124915283019
 C2 0.611005 0.610868 0.8888  0.712069716981
 C3 0.553671 0.553575 0.94629  -0.124915283019
 C2 0.611 0.888853 0.61086  0.712069716981
 C3 0.553667 0.9463 0.55357  -0.124915283019
 C2 0.889062 0.611026 0.88901  0.712069716981
 C3 0.946378 0.55367 0.94635  -0.124915283019
 O1 0.249975 0.250012 0.25001  -1.27492028302
 O1 0.75006 0.74997 0.74996  -1.27492028302
 O2 0.133203 0.428577 0.13317  -0.615642783019
 O2 0.428621 0.133367 0.30533  -0.615642783019
 O2 0.132945 0.305162 0.13295  -0.615642783019
 O2 0.305231 0.133259 0.4287  -0.615642783019
 O2 0.132936 0.132977 0.30515  -0.615642783019
 O2 0.428616 0.305336 0.13335  -0.615642783019
 O2 0.133204 0.133177 0.42857  -0.615642783019
 O2 0.305227 0.428719 0.13324  -0.615642783019
 O2 0.133295 0.305319 0.42869  -0.615642783019
 O2 0.428626 0.13317 0.1331  -0.615642783019
 O2 0.133294 0.428692 0.30531  -0.615642783019
 O2 0.305139 0.132947 0.13293  -0.615642783019
 O2 0.571409 0.866813 0.86681  -0.615642783019
 O2 0.866742 0.571291 0.69466  -0.615642783019
 O2 0.694896 0.867036 0.86704  -0.615642783019
 O2 0.866741 0.694663 0.57128  -0.615642783019
 O2 0.867099 0.867005 0.69482  -0.615642783019
 O2 0.694808 0.571263 0.8667  -0.615642783019
 O2 0.866831 0.866805 0.57140  -0.615642783019
 O2 0.571419 0.694646 0.86662  -0.615642783019
 O2 0.694804 0.866726 0.57125  -0.615642783019
 O2 0.866833 0.571405 0.86680  -0.615642783019
 O2 0.571414 0.866618 0.69464  -0.615642783019
 O2 0.867091 0.694821 0.8670  -0.615642783019
