#======================================================================

# CRYSTAL DATA

#----------------------------------------------------------------------

data_VESTA_phase_1


_pd_phase_name                         MOF
_cell_length_a                         18.41600
_cell_length_b                         18.42300
_cell_length_c                         18.42200
_cell_angle_alpha                      60.23800
_cell_angle_beta                       60.20700
_cell_angle_gamma                      60.20800
_symmetry_space_group_name_H-M         "P 1"
_symmetry_Int_Tables_number            1

loop_
_symmetry_equiv_pos_as_xyz
   "x, y, z"

loop_
   _atom_site_label
   _atom_site_fract_x
   _atom_site_fract_y
   _atom_site_fract_z
 _atom_site_charge
 Zn1 0.206732 0.380375 0.20670  1.12139509434
 Zn1 0.380488 0.206758 0.20676  1.12139509434
 Zn1 0.20615 0.206379 0.20638  1.12139509434
 Zn1 0.206735 0.206688 0.38039  1.12139509434
 Zn1 0.619522 0.793214 0.7932  1.12139509434
 Zn1 0.793279 0.619597 0.79332  1.12139509434
 Zn1 0.793861 0.793594 0.79364  1.12139509434
 Zn1 0.793275 0.793285 0.61962  1.12139509434
 H1 0.048509 0.568015 0.04852  0.113686761006
 H1 0.568197 0.04808 0.33574  0.113686761006
 H1 0.047648 0.335747 0.04766  0.113686761006
 H1 0.33563 0.048184 0.5680  0.113686761006
 H1 0.047651 0.047668 0.33575  0.113686761006
 H1 0.568191 0.335737 0.04807  0.113686761006
 H1 0.048521 0.04851 0.56804  0.113686761006
 H1 0.335623 0.56804 0.04819  0.113686761006
 H1 0.048158 0.335733 0.56804  0.113686761006
 H1 0.568118 0.048466 0.04846  0.113686761006
 H1 0.048163 0.568006 0.33574  0.113686761006
 H1 0.335638 0.047736 0.04773  0.113686761006
 H1 0.431891 0.951507 0.95155  0.113686761006
 H1 0.95185 0.431966 0.66427  0.113686761006
 H1 0.664371 0.952236 0.95228  0.113686761006
 H1 0.951855 0.664239 0.43198  0.113686761006
 H1 0.952363 0.952301 0.66426  0.113686761006
 H1 0.664389 0.431931 0.95182  0.113686761006
 H1 0.951493 0.951459 0.43198  0.113686761006
 H1 0.431821 0.664234 0.95194  0.113686761006
 H1 0.664381 0.951793 0.43195  0.113686761006
 H1 0.951502 0.431956 0.951  0.113686761006
 H1 0.431814 0.951896 0.66427  0.113686761006
 H1 0.952363 0.664224 0.95235  0.113686761006
 C1 0.026881 0.538973 0.02688  -0.0598236556604
 C1 0.539107 0.026627 0.40770  -0.0598236556604
 C1 0.026391 0.4077 0.02640  -0.0598236556604
 C1 0.407638 0.026682 0.53903  -0.0598236556604
 C1 0.026394 0.026402 0.40771  -0.0598236556604
 C1 0.539101 0.407692 0.02662  -0.0598236556604
 C1 0.026891 0.026877 0.53899  -0.0598236556604
 C1 0.407631 0.539013 0.02669  -0.0598236556604
 C1 0.02667 0.407687 0.53902  -0.0598236556604
 C1 0.53903 0.026856 0.0268  -0.0598236556604
 C1 0.026673 0.538996 0.40770  -0.0598236556604
 C1 0.407642 0.026441 0.02644  -0.0598236556604
 C1 0.460979 0.973114 0.97316  -0.0598236556604
 C1 0.973337 0.460976 0.59231  -0.0598236556604
 C1 0.592367 0.973529 0.97358  -0.0598236556604
 C1 0.973339 0.592285 0.46099  -0.0598236556604
 C1 0.973618 0.973569 0.5923  -0.0598236556604
 C1 0.592381 0.460958 0.97332  -0.0598236556604
 C1 0.973121 0.973095 0.46102  -0.0598236556604
 C1 0.460911 0.592279 0.97339  -0.0598236556604
 C1 0.592373 0.973283 0.46098  -0.0598236556604
 C1 0.97313 0.460998 0.97313  -0.0598236556604
 C1 0.460904 0.973338 0.59231  -0.0598236556604
 C1 0.97362 0.592271 0.97362  -0.0598236556604
 C2 0.110914 0.388984 0.11099  0.71554509434
 C3 0.05362 0.446325 0.05364  -0.12402240566
 C2 0.38911 0.111121 0.38910  0.71554509434
 C3 0.446406 0.053666 0.446  -0.12402240566
 C2 0.110916 0.11099 0.38  0.71554509434
 C3 0.053624 0.053641 0.44634  -0.12402240566
 C2 0.389106 0.389083 0.11113  0.71554509434
 C3 0.446401 0.446381 0.05367  -0.12402240566
 C2 0.111146 0.389052 0.38907  0.71554509434
 C3 0.053684 0.446369 0.44639  -0.12402240566
 C2 0.388946 0.111003 0.1110  0.71554509434
 C3 0.446315 0.053652 0.05365  -0.12402240566
 C2 0.611064 0.888966 0.88901  0.71554509434
 C3 0.553694 0.94632 0.94636  -0.12402240566
 C2 0.888861 0.61092 0.61095  0.71554509434
 C3 0.946327 0.553603 0.55363  -0.12402240566
 C2 0.889094 0.888984 0.61102  0.71554509434
 C3 0.946389 0.946329 0.55368  -0.12402240566
 C2 0.610906 0.610888 0.88888  0.71554509434
 C3 0.553611 0.55359 0.94635  -0.12402240566
 C2 0.610901 0.888842 0.61092  0.71554509434
 C3 0.553605 0.946306 0.55362  -0.12402240566
 C2 0.889097 0.610987 0.8890  0.71554509434
 C3 0.946392 0.553646 0.94637  -0.12402240566
 O1 0.25 0.249996 0.2500  -1.27857490566
 O1 0.75001 0.749976 0.75001  -1.27857490566
 O2 0.133245 0.428605 0.13318  -0.61687490566
 O2 0.428707 0.133387 0.30535  -0.61687490566
 O2 0.132778 0.305211 0.13300  -0.61687490566
 O2 0.305314 0.133232 0.42866  -0.61687490566
 O2 0.132759 0.133027 0.30522  -0.61687490566
 O2 0.428705 0.305344 0.13337  -0.61687490566
 O2 0.13326 0.133165 0.42862  -0.61687490566
 O2 0.305309 0.428642 0.13324  -0.61687490566
 O2 0.133296 0.305323 0.42861  -0.61687490566
 O2 0.42861 0.133246 0.13324  -0.61687490566
 O2 0.1333 0.428596 0.30534  -0.61687490566
 O2 0.305118 0.132963 0.1329  -0.61687490566
 O2 0.571399 0.866728 0.86677  -0.61687490566
 O2 0.866709 0.571376 0.69468  -0.61687490566
 O2 0.694892 0.867006 0.86704  -0.61687490566
 O2 0.86671 0.694649 0.57140  -0.61687490566
 O2 0.867248 0.866949 0.69480  -0.61687490566
 O2 0.694702 0.571329 0.86678  -0.61687490566
 O2 0.866757 0.866801 0.57139  -0.61687490566
 O2 0.571306 0.694627 0.86664  -0.61687490566
 O2 0.694697 0.866743 0.57135  -0.61687490566
 O2 0.866767 0.571366 0.86683  -0.61687490566
 O2 0.571304 0.86658 0.69466  -0.61687490566
 O2 0.867233 0.69476 0.86701  -0.61687490566
