#======================================================================

# CRYSTAL DATA

#----------------------------------------------------------------------

data_VESTA_phase_1


_pd_phase_name                         MOF
_cell_length_a                         18.42500
_cell_length_b                         18.43400
_cell_length_c                         18.43400
_cell_angle_alpha                      60.13700
_cell_angle_beta                       60.14700
_cell_angle_gamma                      60.15000
_symmetry_space_group_name_H-M         "P 1"
_symmetry_Int_Tables_number            1

loop_
_symmetry_equiv_pos_as_xyz
   "x, y, z"

loop_
   _atom_site_label
   _atom_site_fract_x
   _atom_site_fract_y
   _atom_site_fract_z
 _atom_site_charge
 Zn1 0.20659 0.380463 0.20673  1.11823113208
 Zn1 0.380477 0.20663 0.20663  1.11823113208
 Zn1 0.206381 0.206354 0.2063  1.11823113208
 Zn1 0.206593 0.206731 0.38047  1.11823113208
 Zn1 0.619546 0.793367 0.79335  1.11823113208
 Zn1 0.793433 0.619534 0.79325  1.11823113208
 Zn1 0.793642 0.793643 0.79365  1.11823113208
 Zn1 0.793431 0.793266 0.6195  1.11823113208
 H1 0.0483 0.568001 0.04856  0.116071548742
 H1 0.568136 0.048043 0.33565  0.116071548742
 H1 0.047969 0.335683 0.0475  0.116071548742
 H1 0.335617 0.048348 0.56818  0.116071548742
 H1 0.047959 0.047592 0.33567  0.116071548742
 H1 0.568136 0.335666 0.04803  0.116071548742
 H1 0.048304 0.048548 0.56800  0.116071548742
 H1 0.335622 0.568173 0.04835  0.116071548742
 H1 0.04817 0.335665 0.56817  0.116071548742
 H1 0.568138 0.048366 0.04837  0.116071548742
 H1 0.048176 0.568154 0.33565  0.116071548742
 H1 0.335629 0.047789 0.04777  0.116071548742
 H1 0.431886 0.95163 0.95161  0.116071548742
 H1 0.951849 0.431843 0.66433  0.116071548742
 H1 0.664394 0.952208 0.95221  0.116071548742
 H1 0.951854 0.664332 0.43181  0.116071548742
 H1 0.952066 0.952404 0.66431  0.116071548742
 H1 0.664402 0.431824 0.95163  0.116071548742
 H1 0.951721 0.951448 0.43198  0.116071548742
 H1 0.431888 0.664331 0.95195  0.116071548742
 H1 0.664407 0.95165 0.43181  0.116071548742
 H1 0.951724 0.431995 0.95142  0.116071548742
 H1 0.431888 0.951955 0.66433  0.116071548742
 H1 0.952055 0.664314 0.95242  0.116071548742
 C1 0.026762 0.538969 0.02691  -0.0596042845912
 C1 0.539073 0.026615 0.4076  -0.0596042845912
 C1 0.026564 0.407667 0.02634  -0.0596042845912
 C1 0.407632 0.026788 0.53908  -0.0596042845912
 C1 0.026555 0.026358 0.40766  -0.0596042845912
 C1 0.539076 0.407656 0.02660  -0.0596042845912
 C1 0.026761 0.026904 0.5389  -0.0596042845912
 C1 0.407637 0.539085 0.02678  -0.0596042845912
 C1 0.026681 0.407655 0.53908  -0.0596042845912
 C1 0.539041 0.026803 0.0268  -0.0596042845912
 C1 0.026684 0.539073 0.40764  -0.0596042845912
 C1 0.407645 0.026469 0.02646  -0.0596042845912
 C1 0.460982 0.973194 0.97318  -0.0596042845912
 C1 0.973341 0.460924 0.59234  -0.0596042845912
 C1 0.592379 0.973528 0.97352  -0.0596042845912
 C1 0.973343 0.592342 0.46090  -0.0596042845912
 C1 0.973469 0.973638 0.5923  -0.0596042845912
 C1 0.592387 0.460912 0.97320  -0.0596042845912
 C1 0.973264 0.973092 0.46102  -0.0596042845912
 C1 0.460948 0.592341 0.97338  -0.0596042845912
 C1 0.592392 0.97321 0.46090  -0.0596042845912
 C1 0.973262 0.461028 0.97307  -0.0596042845912
 C1 0.460951 0.973382 0.59234  -0.0596042845912
 C1 0.97346 0.592329 0.97364  -0.0596042845912
 C2 0.110989 0.388906 0.11094  0.710331965409
 C3 0.053667 0.446288 0.0536  -0.126151367925
 C2 0.389034 0.1112 0.38910  0.710331965409
 C3 0.446362 0.05374 0.44640  -0.126151367925
 C2 0.110985 0.110957 0.38890  0.710331965409
 C3 0.053661 0.053614 0.44628  -0.126151367925
 C2 0.389035 0.389101 0.11121  0.710331965409
 C3 0.446365 0.446405 0.05373  -0.126151367925
 C2 0.111133 0.389096 0.38910  0.710331965409
 C3 0.053713 0.446391 0.44639  -0.126151367925
 C2 0.388949 0.110954 0.11094  0.710331965409
 C3 0.446313 0.053633 0.0536  -0.126151367925
 C2 0.611074 0.889042 0.88904  0.710331965409
 C3 0.553711 0.946364 0.94636  -0.126151367925
 C2 0.888891 0.610901 0.61088  0.710331965409
 C3 0.946312 0.553606 0.55359  -0.126151367925
 C2 0.889039 0.889039 0.61108  0.710331965409
 C3 0.946364 0.946382 0.55370  -0.126151367925
 C2 0.610988 0.610896 0.88878  0.710331965409
 C3 0.553659 0.553592 0.94625  -0.126151367925
 C2 0.61099 0.888798 0.61088  0.710331965409
 C3 0.553662 0.946258 0.55358  -0.126151367925
 C2 0.889034 0.61109 0.88904  0.710331965409
 C3 0.946357 0.553709 0.94638  -0.126151367925
 O1 0.249969 0.249996 0.24999  -1.27402886792
 O1 0.750055 0.750001 0.74999  -1.27402886792
 O2 0.133257 0.428503 0.1331  -0.615132201258
 O2 0.428633 0.133433 0.30532  -0.615132201258
 O2 0.132904 0.305117 0.1329  -0.615132201258
 O2 0.305226 0.133291 0.42870  -0.615132201258
 O2 0.132891 0.132993 0.30511  -0.615132201258
 O2 0.428633 0.305323 0.13341  -0.615132201258
 O2 0.133243 0.133152 0.42850  -0.615132201258
 O2 0.305228 0.4287 0.13330  -0.615132201258
 O2 0.133274 0.305313 0.42870  -0.615132201258
 O2 0.428583 0.133167 0.13316  -0.615132201258
 O2 0.133262 0.42869 0.30531  -0.615132201258
 O2 0.305118 0.132933 0.13292  -0.615132201258
 O2 0.571441 0.86683 0.86682  -0.615132201258
 O2 0.866762 0.571307 0.69467  -0.615132201258
 O2 0.694905 0.867064 0.86706  -0.615132201258
 O2 0.866749 0.694684 0.57128  -0.615132201258
 O2 0.867132 0.867004 0.69487  -0.615132201258
 O2 0.694796 0.571296 0.8666  -0.615132201258
 O2 0.866781 0.866844 0.57148  -0.615132201258
 O2 0.57139 0.694674 0.86657  -0.615132201258
 O2 0.694798 0.866706 0.57128  -0.615132201258
 O2 0.866767 0.571494 0.86685  -0.615132201258
 O2 0.571391 0.866564 0.6946  -0.615132201258
 O2 0.867119 0.694879 0.86702  -0.615132201258
