#======================================================================

# CRYSTAL DATA

#----------------------------------------------------------------------

data_VESTA_phase_1


_pd_phase_name                         MOF
_cell_length_a                         18.43400
_cell_length_b                         18.42300
_cell_length_c                         18.42100
_cell_angle_alpha                      60.16100
_cell_angle_beta                       60.17900
_cell_angle_gamma                      60.18200
_symmetry_space_group_name_H-M         "P 1"
_symmetry_Int_Tables_number            1

loop_
_symmetry_equiv_pos_as_xyz
   "x, y, z"

loop_
   _atom_site_label
   _atom_site_fract_x
   _atom_site_fract_y
   _atom_site_fract_z
 _atom_site_charge
 Zn1 0.293284 0.293386 0.11949  1.13038514151
 Zn1 0.293635 0.293717 0.2937  1.13038514151
 Zn1 0.119688 0.293276 0.29328  1.13038514151
 Zn1 0.293263 0.119532 0.29337  1.13038514151
 Zn1 0.706695 0.706638 0.88051  1.13038514151
 Zn1 0.706346 0.706307 0.70628  1.13038514151
 Zn1 0.706715 0.880492 0.7066  1.13038514151
 Zn1 0.880291 0.706751 0.70671  1.13038514151
 H1 0.451241 0.451824 0.93198  0.104277641509
 H1 0.452419 0.45214 0.16438  0.104277641509
 H1 0.932033 0.164387 0.45150  0.104277641509
 H1 0.164228 0.931771 0.45212  0.104277641509
 H1 0.451724 0.931868 0.164  0.104277641509
 H1 0.451795 0.164384 0.93179  0.104277641509
 H1 0.932198 0.4514 0.45144  0.104277641509
 H1 0.164212 0.452418 0.45239  0.104277641509
 H1 0.452421 0.164363 0.45215  0.104277641509
 H1 0.451245 0.932029 0.45178  0.104277641509
 H1 0.932041 0.451486 0.16440  0.104277641509
 H1 0.164223 0.452161 0.93173  0.104277641509
 H1 0.548737 0.548203 0.06801  0.104277641509
 H1 0.547559 0.547887 0.83562  0.104277641509
 H1 0.835749 0.068256 0.54787  0.104277641509
 H1 0.067945 0.83564 0.54849  0.104277641509
 H1 0.067939 0.548538 0.83560  0.104277641509
 H1 0.835757 0.547863 0.06827  0.104277641509
 H1 0.548738 0.067995 0.54822  0.104277641509
 H1 0.547561 0.835661 0.54784  0.104277641509
 H1 0.835769 0.5476 0.54761  0.104277641509
 H1 0.067783 0.548618 0.54856  0.104277641509
 H1 0.548261 0.068156 0.83560  0.104277641509
 H1 0.54819 0.83564 0.06821  0.104277641509
 C1 0.472984 0.473316 0.96101  -0.0543123584906
 C1 0.473648 0.473485 0.09237  -0.0543123584906
 C1 0.961022 0.092378 0.47312  -0.0543123584906
 C1 0.092281 0.960882 0.47348  -0.0543123584906
 C1 0.473257 0.960941 0.09238  -0.0543123584906
 C1 0.473292 0.092378 0.96089  -0.0543123584906
 C1 0.961138 0.473072 0.473  -0.0543123584906
 C1 0.092272 0.473649 0.47363  -0.0543123584906
 C1 0.47365 0.092363 0.47349  -0.0543123584906
 C1 0.47299 0.961047 0.47328  -0.0543123584906
 C1 0.961032 0.473119 0.09238  -0.0543123584906
 C1 0.092276 0.473511 0.96085  -0.0543123584906
 C1 0.526993 0.526712 0.03898  -0.0543123584906
 C1 0.526329 0.526543 0.90763  -0.0543123584906
 C1 0.907697 0.039145 0.52652  -0.0543123584906
 C1 0.038955 0.907649 0.52687  -0.0543123584906
 C1 0.038948 0.526905 0.90762  -0.0543123584906
 C1 0.907704 0.526514 0.03915  -0.0543123584906
 C1 0.526993 0.038976 0.52672  -0.0543123584906
 C1 0.526333 0.907661 0.52651  -0.0543123584906
 C1 0.907709 0.526367 0.52637  -0.0543123584906
 C1 0.038844 0.526944 0.52691  -0.0543123584906
 C1 0.52673 0.039084 0.90762  -0.0543123584906
 C1 0.526694 0.907646 0.03911  -0.0543123584906
 C2 0.388956 0.389124 0.1111  0.730682641509
 C3 0.446297 0.446439 0.05372  -0.123769858491
 C2 0.110988 0.110847 0.38880  0.730682641509
 C3 0.05365 0.053572 0.44627  -0.123769858491
 C2 0.388731 0.110946 0.11090  0.730682641509
 C3 0.446223 0.053628 0.05360  -0.123769858491
 C2 0.111176 0.389036 0.3890  0.730682641509
 C3 0.05377 0.446363 0.44637  -0.123769858491
 C2 0.388951 0.111122 0.38911  0.730682641509
 C3 0.446297 0.053737 0.44642  -0.123769858491
 C2 0.110997 0.388801 0.11083  0.730682641509
 C3 0.05366 0.446275 0.05356  -0.123769858491
 C2 0.611025 0.610899 0.88889  0.730682641509
 C3 0.553676 0.553593 0.9462  -0.123769858491
 C2 0.88899 0.88918 0.61120  0.730682641509
 C3 0.946327 0.946456 0.55372  -0.123769858491
 C2 0.888983 0.611224 0.88916  0.730682641509
 C3 0.94632 0.553749 0.94644  -0.123769858491
 C2 0.611029 0.888901 0.61088  0.730682641509
 C3 0.553686 0.946286 0.55357  -0.123769858491
 C2 0.888805 0.61099 0.61095  0.730682641509
 C3 0.946211 0.553647 0.55364  -0.123769858491
 C2 0.611251 0.889078 0.88910  0.730682641509
 C3 0.553764 0.946396 0.94640  -0.123769858491
 O1 0.250061 0.250015 0.2  -1.28907235849
 O1 0.749919 0.750009 0.75000  -1.28907235849
 O2 0.366631 0.366981 0.07147  -0.622794025157
 O2 0.367049 0.367108 0.19493  -0.622794025157
 O2 0.071467 0.194645 0.36652  -0.622794025157
 O2 0.194716 0.071226 0.36677  -0.622794025157
 O2 0.366542 0.071343 0.19471  -0.622794025157
 O2 0.366588 0.194746 0.07128  -0.622794025157
 O2 0.071642 0.366746 0.3667  -0.622794025157
 O2 0.194921 0.367119 0.36712  -0.622794025157
 O2 0.367056 0.194936 0.36710  -0.622794025157
 O2 0.366614 0.071503 0.36697  -0.622794025157
 O2 0.071474 0.366511 0.19464  -0.622794025157
 O2 0.194726 0.366784 0.07120  -0.622794025157
 O2 0.633349 0.633044 0.9285  -0.622794025157
 O2 0.632931 0.632917 0.8050  -0.622794025157
 O2 0.805262 0.9288 0.63322  -0.622794025157
 O2 0.928512 0.805382 0.63348  -0.622794025157
 O2 0.928506 0.633515 0.80535  -0.622794025157
 O2 0.805254 0.63324 0.92880  -0.622794025157
 O2 0.633365 0.928521 0.63303  -0.622794025157
 O2 0.632925 0.805087 0.63290  -0.622794025157
 O2 0.805061 0.632903 0.63288  -0.622794025157
 O2 0.928339 0.633278 0.63323  -0.622794025157
 O2 0.633437 0.928681 0.80528  -0.622794025157
 O2 0.633394 0.805278 0.92872  -0.622794025157
