#======================================================================

# CRYSTAL DATA

#----------------------------------------------------------------------

data_VESTA_phase_1


_pd_phase_name                         MOF
_cell_length_a                         13.44400
_cell_length_b                         13.79100
_cell_length_c                         27.65100
_cell_angle_alpha                      90.01400
_cell_angle_beta                       89.91400
_cell_angle_gamma                      89.06400
_symmetry_space_group_name_H-M         "P 1"
_symmetry_Int_Tables_number            1

loop_
_symmetry_equiv_pos_as_xyz
   "x, y, z"

loop_
   _atom_site_label
   _atom_site_fract_x
   _atom_site_fract_y
   _atom_site_fract_z
 _atom_site_charge
 Cd1 0.0 0.162172 0.12569  0.977897058824
 Cd2 0.893784 0.540899 0.18676  0.660787058824
 Cd3 0.122475 0.782791 0.06739  0.551067058824
 Cd1 0.488032 0.33173 0.87490  0.977897058824
 Cd2 0.378929 0.95942 0.81057  0.660787058824
 Cd3 0.612617 0.709806 0.92955  0.551067058824
 Cd1 0.506322 0.834952 0.62613  0.977897058824
 Cd2 0.608101 0.45771 0.69060  0.660787058824
 Cd3 0.378714 0.214823 0.57025  0.551067058824
 Cd1 0.009199 0.664448 0.37269  0.977897058824
 Cd2 0.116442 0.039716 0.31206  0.660787058824
 Cd3 0.878632 0.288973 0.42953  0.551067058824
 Cd1 0.000425 0.833506 0.87345  0.977897058824
 Cd2 0.10729 0.456577 0.81092  0.660787058824
 Cd3 0.877399 0.21389 0.93134  0.551067058824
 Cd1 0.510532 0.670547 0.12680  0.977897058824
 Cd2 0.621166 0.043897 0.18980  0.660787058824
 Cd3 0.38547 0.29339 0.07195  0.551067058824
 Cd1 0.494241 0.163962 0.3749  0.977897058824
 Cd2 0.392557 0.541862 0.31150  0.660787058824
 Cd3 0.622397 0.784798 0.43151  0.551067058824
 Cd1 0.989402 0.3366 0.62525  0.977897058824
 Cd2 0.885389 0.960963 0.68750  0.660787058824
 Cd3 0.121807 0.712258 0.56910  0.551067058824
 C1 0.931566 0.390149 0.16611  -0.0262757983193
 C1 0.77028 0.082537 0.1635  -0.0262757983193
 C1 0.086593 0.937774 0.08536  -0.0262757983193
 C1 0.233791 0.242455 0.08536  -0.0262757983193
 C1 0.032857 0.680281 0.1100  -0.0262757983193
 C1 0.904244 0.203223 0.01000  -0.0262757983193
 C1 0.087728 0.088894 0.23751  -0.0262757983193
 C1 0.432058 0.101632 0.83373  -0.0262757983193
 C1 0.255873 0.411204 0.83625  -0.0262757983193
 C1 0.54638 0.567838 0.91521  -0.0262757983193
 C1 0.723385 0.263849 0.91906  -0.0262757983193
 C1 0.527602 0.801363 0.87844  -0.0262757983193
 C1 0.398525 0.299735 0.9923  -0.0262757983193
 C1 0.577467 0.408539 0.76481  -0.0262757983193
 C1 0.558771 0.603718 0.66864  -0.0262757983193
 C1 0.737165 0.914119 0.66377  -0.0262757983193
 C1 0.443642 0.069641 0.5851  -0.0262757983193
 C1 0.273188 0.764524 0.58195  -0.0262757983193
 C1 0.462523 0.306844 0.6205  -0.0262757983193
 C1 0.603098 0.792932 0.51083  -0.0262757983193
 C1 0.413186 0.913821 0.73573  -0.0262757983193
 C1 0.065826 0.895539 0.33331  -0.0262757983193
 C1 0.242035 0.585181 0.3362  -0.0262757983193
 C1 0.943264 0.431293 0.41284  -0.0262757983193
 C1 0.776119 0.73544 0.41708  -0.0262757983193
 C1 0.96539 0.193864 0.38039  -0.0262757983193
 C1 0.104476 0.700503 0.48988  -0.0262757983193
 C1 0.925749 0.591534 0.26022  -0.0262757983193
 C1 0.053673 0.602201 0.83176  -0.0262757983193
 C1 0.232325 0.911851 0.83555  -0.0262757983193
 C1 0.938651 0.067879 0.91387  -0.0262757983193
 C1 0.761516 0.765419 0.91458  -0.0262757983193
 C1 0.961449 0.306429 0.881  -0.0262757983193
 C1 0.078809 0.787012 0.99028  -0.0262757983193
 C1 0.915785 0.912979 0.76236  -0.0262757983193
 C1 0.573407 0.898989 0.16690  -0.0262757983193
 C1 0.7411 0.579796 0.16213  -0.0262757983193
 C1 0.447671 0.437678 0.086  -0.0262757983193
 C1 0.278823 0.753773 0.08864  -0.0262757983193
 C1 0.472727 0.199669 0.12131  -0.0262757983193
 C1 0.601637 0.702024 0.00886  -0.0262757983193
 C1 0.424876 0.591833 0.23772  -0.0262757983193
 C1 0.440571 0.39551 0.33325  -0.0262757983193
 C1 0.264047 0.084807 0.33753  -0.0262757983193
 C1 0.558496 0.930322 0.41630  -0.0262757983193
 C1 0.727166 0.236396 0.41751  -0.0262757983193
 C1 0.536383 0.69194 0.38245  -0.0262757983193
 C1 0.39792 0.205784 0.49097  -0.0262757983193
 C1 0.587012 0.089543 0.26427  -0.0262757983193
 C1 0.935574 0.105062 0.66592  -0.0262757983193
 C1 0.75743 0.414372 0.66413  -0.0262757983193
 C1 0.054963 0.570393 0.58488  -0.0262757983193
 C1 0.224836 0.266021 0.58262  -0.0262757983193
 C1 0.035253 0.806637 0.61872  -0.0262757983193
 C1 0.896365 0.299989 0.50875  -0.0262757983193
 C1 0.076852 0.410864 0.73607  -0.0262757983193
 N1 0.957904 0.312926 0.15353  -0.286545798319
 N1 0.849123 0.103169 0.14932  -0.286545798319
 N1 0.053807 0.013807 0.09640  -0.286545798319
 N1 0.153734 0.220297 0.09719  -0.286545798319
 N1 0.985586 0.631743 0.13565  -0.286545798319
 N1 0.93314 0.197454 0.0498  -0.286545798319
 N1 0.068916 0.118401 0.19889  -0.286545798319
 N1 0.45572 0.177825 0.8477  -0.286545798319
 N1 0.334615 0.388387 0.85056  -0.286545798319
 N1 0.522363 0.489066 0.90547  -0.286545798319
 N1 0.642594 0.284718 0.90678  -0.286545798319
 N1 0.479762 0.85518 0.85512  -0.286545798319
 N1 0.421011 0.301129 0.95141  -0.286545798319
 N1 0.557436 0.379792 0.80333  -0.286545798319
 N1 0.53776 0.681586 0.65497  -0.286545798319
 N1 0.658642 0.890979 0.65029  -0.286545798319
 N1 0.468673 0.990296 0.59471  -0.286545798319
 N1 0.352724 0.78721 0.59426  -0.286545798319
 N1 0.509933 0.358812 0.64427  -0.286545798319
 N1 0.577295 0.796961 0.55124  -0.286545798319
 N1 0.435112 0.885538 0.69723  -0.286545798319
 N1 0.043736 0.818307 0.34653  -0.286545798319
 N1 0.162313 0.606485 0.34998  -0.286545798319
 N1 0.968884 0.509131 0.40225  -0.286545798319
 N1 0.856495 0.714482 0.40411  -0.286545798319
 N1 0.014922 0.14022 0.35769  -0.286545798319
 N1 0.079095 0.696193 0.44946  -0.286545798319
 N1 0.943634 0.619309 0.29916  -0.286545798319
 N1 0.031354 0.680193 0.84485  -0.286545798319
 N1 0.154638 0.887386 0.84964  -0.286545798319
 N1 0.960384 0.988172 0.90321  -0.286545798319
 N1 0.840517 0.787837 0.90128  -0.286545798319
 N1 0.008142 0.359455 0.85754  -0.286545798319
 N1 0.05734 0.794857 0.94946  -0.286545798319
 N1 0.935427 0.88368 0.80092  -0.286545798319
 N1 0.55122 0.821575 0.15398  -0.286545798319
 N1 0.662632 0.608195 0.14991  -0.286545798319
 N1 0.4717 0.516447 0.09594  -0.286545798319
 N1 0.35947 0.728335 0.09905  -0.286545798319
 N1 0.521423 0.146163 0.14440  -0.286545798319
 N1 0.579922 0.6994 0.04982  -0.286545798319
 N1 0.444667 0.62142 0.19933  -0.286545798319
 N1 0.460709 0.317392 0.3468  -0.286545798319
 N1 0.34251 0.107266 0.35137  -0.286545798319
 N1 0.533955 0.009575 0.40626  -0.286545798319
 N1 0.64716 0.21359 0.40603  -0.286545798319
 N1 0.488658 0.639722 0.35901  -0.286545798319
 N1 0.423448 0.201361 0.45053  -0.286545798319
 N1 0.565127 0.116038 0.30308  -0.286545798319
 N1 0.957466 0.1821 0.65232  -0.286545798319
 N1 0.836361 0.393204 0.64934  -0.286545798319
 N1 0.028188 0.492709 0.59505  -0.286545798319
 N1 0.143769 0.287459 0.59435  -0.286545798319
 N1 0.986062 0.859929 0.64179  -0.286545798319
 N1 0.921082 0.303853 0.54926  -0.286545798319
 N1 0.05739 0.383142 0.69732  -0.286545798319
