#======================================================================

# CRYSTAL DATA

#----------------------------------------------------------------------

data_VESTA_phase_1


_pd_phase_name                         MOF
_cell_length_a                         16.15200
_cell_length_b                         16.38600
_cell_length_c                         17.29700
_cell_angle_alpha                      89.87500
_cell_angle_beta                       103.74900
_cell_angle_gamma                      90.01300
_symmetry_space_group_name_H-M         "P 1"
_symmetry_Int_Tables_number            1

loop_
_symmetry_equiv_pos_as_xyz
   "x, y, z"

loop_
   _atom_site_label
   _atom_site_fract_x
   _atom_site_fract_y
   _atom_site_fract_z
 _atom_site_charge
 Zn1 0.63525 0.041471 0.5599  0.976233342541
 Zn2 0.948584 0.989503 0.17434  1.01488334254
 Zn1 0.864581 0.54171 0.43691  0.976233342541
 Zn2 0.550964 0.489698 0.82359  1.01488334254
 Zn1 0.36481 0.958501 0.43964  0.976233342541
 Zn2 0.049369 0.010424 0.82330  1.01488334254
 Zn1 0.135128 0.458365 0.55988  0.976233342541
 Zn2 0.448061 0.51019 0.17398  1.01488334254
 Zn3 1.2e-05 0.00028 0.99967  1.10446334254
 Zn3 0.499959 0.500052 0.99957  1.10446334254
 H1 0.804482 0.968865 0.64195  0.104078342541
 H1 0.85456 0.836493 0.70742  0.104078342541
 H1 0.745379 0.728609 0.71736  0.104078342541
 H1 0.550352 0.90406 0.61242  0.104078342541
 H1 0.465273 0.70267 0.64773  0.104078342541
 H1 0.471096 0.799767 0.60195  0.104078342541
 H1 0.415869 0.912515 0.66607  0.104078342541
 H1 0.38239 0.975041 0.78459  0.104078342541
 H1 0.488783 0.765214 0.92478  0.104078342541
 H1 0.524031 0.704302 0.80654  0.104078342541
 H1 0.302426 0.980267 0.86995  0.104078342541
 H1 0.270321 0.043945 0.98662  0.104078342541
 H1 0.48047 0.915733 0.13854  0.104078342541
 H1 0.51644 0.855398 0.02069  0.104078342541
 H1 0.331683 0.086436 0.131  0.104078342541
 H1 0.40735 0.0 0.19464  0.104078342541
 H1 0.189133 0.054436 0.09715  0.104078342541
 H1 0.098004 0.876449 0.24138  0.104078342541
 H1 0.249887 0.832721 0.29416  0.104078342541
 H1 0.366438 0.904254 0.24806  0.104078342541
 H1 0.914353 0.156172 0.56437  0.104078342541
 H1 0.0 0.281238 0.57923  0.104078342541
 H1 0.783192 0.432896 0.54837  0.104078342541
 H1 0.692464 0.307694 0.53842  0.104078342541
 H1 0.667705 0.302687 0.10155  0.104078342541
 H1 0.720169 0.293187 0.86971  0.104078342541
 H1 0.827518 0.182155 0.9170  0.104078342541
 H1 0.776601 0.193552 0.14897  0.104078342541
 H1 0.900012 0.913799 0.40061  0.104078342541
 H1 0.096941 0.094911 0.4520  0.104078342541
 H1 0.695134 0.469206 0.35593  0.104078342541
 H1 0.644905 0.336634 0.29174  0.104078342541
 H1 0.753946 0.228406 0.2826  0.104078342541
 H1 0.949213 0.404043 0.3854  0.104078342541
 H1 0.034115 0.202201 0.35183  0.104078342541
 H1 0.028399 0.299211 0.3974  0.104078342541
 H1 0.083793 0.411978 0.33306  0.104078342541
 H1 0.117308 0.474672 0.21443  0.104078342541
 H1 0.010516 0.265283 0.07468  0.104078342541
 H1 0.975166 0.20423 0.19303  0.104078342541
 H1 0.196807 0.480543 0.12894  0.104078342541
 H1 0.229132 0.544067 0.  0.104078342541
 H1 0.019785 0.41505 0.86049  0.104078342541
 H1 0.983528 0.354989 0.97853  0.104078342541
 H1 0.16819 0.585987 0.86645  0.104078342541
 H1 0.092631 0.521791 0.80395  0.104078342541
 H1 0.310836 0.554045 0.90141  0.104078342541
 H1 0.402205 0.376547 0.75758  0.104078342541
 H1 0.250416 0.332604 0.70502  0.104078342541
 H1 0.133748 0.403705 0.75110  0.104078342541
 H1 0.585041 0.655892 0.43511  0.104078342541
 H1 0.492661 0.780891 0.42026  0.104078342541
 H1 0.715595 0.932663 0.44779  0.104078342541
 H1 0.806299 0.807553 0.45720  0.104078342541
 H1 0.831825 0.80286 0.89707  0.104078342541
 H1 0.779701 0.792763 0.12907  0.104078342541
 H1 0.672362 0.681884 0.08204  0.104078342541
 H1 0.723065 0.693692 0.85004  0.104078342541
 H1 0.600186 0.415041 0.59803  0.104078342541
 H1 0.402264 0.595297 0.54588  0.104078342541
 H1 0.195349 0.03069 0.35735  0.104078342541
 H1 0.14499 0.162773 0.29146  0.104078342541
 H1 0.253914 0.270998 0.2816  0.104078342541
 H1 0.449337 0.096197 0.38729  0.104078342541
 H1 0.534025 0.297653 0.35161  0.104078342541
 H1 0.528455 0.200724 0.39775  0.104078342541
 H1 0.583909 0.087929 0.3339  0.104078342541
 H1 0.617459 0.02511 0.21560  0.104078342541
 H1 0.509988 0.234131 0.07469  0.104078342541
 H1 0.474672 0.29533 0.1927  0.104078342541
 H1 0.697118 0.01961 0.13010  0.104078342541
 H1 0.729458 0.955872 0.  0.104078342541
 H1 0.519178 0.083738 0.86139  0.104078342541
 H1 0.482965 0.14403 0.9791  0.104078342541
 H1 0.66898 0.913566 0.86846  0.104078342541
 H1 0.59231 0.976722 0.80559  0.104078342541
 H1 0.811136 0.947128 0.90249  0.104078342541
 H1 0.899398 0.125322 0.75659  0.104078342541
 H1 0.746977 0.16752 0.70424  0.104078342541
 H1 0.631582 0.095184 0.75137  0.104078342541
 H1 0.085127 0.843811 0.43420  0.104078342541
 H1 0.992873 0.718711 0.41850  0.104078342541
 H1 0.216307 0.567169 0.44872  0.104078342541
 H1 0.306996 0.692442 0.45924  0.104078342541
 H1 0.330381 0.6971 0.89653  0.104078342541
 H1 0.280018 0.707624 0.12917  0.104078342541
 H1 0.172481 0.818484 0.08212  0.104078342541
 H1 0.221048 0.805912 0.84935  0.104078342541
 H1 0.099384 0.085495 0.59767  0.104078342541
 H1 0.902464 0.904328 0.54627  0.104078342541
 H1 0.30441 0.530488 0.64128  0.104078342541
 H1 0.354917 0.662345 0.70702  0.104078342541
 H1 0.24608 0.770369 0.71725  0.104078342541
 H1 0.050489 0.595865 0.61217  0.104078342541
 H1 0.966 0.797367 0.64761  0.104078342541
 H1 0.971612 0.700522 0.60167  0.104078342541
 H1 0.915918 0.5874 0.66583  0.104078342541
 H1 0.882282 0.524559 0.78439  0.104078342541
 H1 0.989146 0.733727 0.92441  0.104078342541
 H1 0.024572 0.794954 0.80619  0.104078342541
 H1 0.802577 0.51888 0.87013  0.104078342541
 H1 0.770219 0.455607 0.98724  0.104078342541
 H1 0.980166 0.584069 0.13845  0.104078342541
 H1 0.0 0.643874 0.02030  0.104078342541
 H1 0.831288 0.413726 0.13289  0.104078342541
 H1 0.906876 0.478044 0.19523  0.104078342541
 H1 0.688759 0.445515 0.09795  0.104078342541
 H1 0.597274 0.624321 0.24041  0.104078342541
 H1 0.749065 0.668521 0.29263  0.104078342541
 H1 0.865755 0.596887 0.24709  0.104078342541
 H1 0.414931 0.344044 0.56277  0.104078342541
 H1 0.507325 0.219032 0.57846  0.104078342541
 H1 0.284332 0.067355 0.55112  0.104078342541
 H1 0.193579 0.192509 0.54075  0.104078342541
 H1 0.167173 0.197549 0.10037  0.104078342541
 H1 0.222051 0.205241 0.86942  0.104078342541
 H1 0.328969 0.316562 0.91635  0.104078342541
 H1 0.275916 0.306697 0.14752  0.104078342541
 H1 0.39867 0.584861 0.400  0.104078342541
 H1 0.596887 0.404944 0.4522  0.104078342541
 C1 0.759591 0.92247 0.65093  -0.0121229074586
 C2 0.78656 0.847448 0.68614  -0.086404612004
 C2 0.726598 0.788843 0.69242  -0.086404612004
 C3 0.639377 0.807009 0.66527  0.293238342541
 C1 0.616375 0.884664 0.63346  -0.0121229074586
 C4 0.493534 0.763895 0.65675  0.0738433425414
 C5 0.472938 0.804223 0.72813  -0.0641127685697
 C2 0.432298 0.880249 0.72296  -0.086404612004
 C2 0.412937 0.915271 0.79009  -0.086404612004
 C5 0.433464 0.875677 0.86453  -0.0641127685697
 C2 0.474179 0.799101 0.8688  -0.086404612004
 C2 0.493486 0.764045 0.80203  -0.086404612004
 C5 0.412438 0.912646 0.93560  -0.0641127685697
 C2 0.343228 0.966616 0.92835  -0.086404612004
 C2 0.323909 0.0 0.99501  -0.086404612004
 C5 0.372192 0.983692 0.07168  -0.0641127685697
 C2 0.440845 0.92961 0.07954  -0.086404612004
 C2 0.460893 0.895048 0.01276  -0.086404612004
 C6 0.351801 0.0 0.14384  -0.0935966574586
 C1 0.199855 0.0 0.14007  -0.0121229074586
 C3 0.130079 0.967809 0.16246  0.293238342541
 C2 0.149551 0.905274 0.22046  -0.086404612004
 C2 0.23376 0.881234 0.25006  -0.086404612004
 C1 0.2996 0.919153 0.22488  -0.0121229074586
 C7 0.7447 0.149891 0.54913  0.683295342541
 C5 0.798101 0.224791 0.55119  -0.0641127685697
 C2 0.886654 0.217002 0.56185  -0.086404612004
 C2 0.937647 0.28632 0.56993  -0.086404612004
 C5 0.90077 0.36445 0.56550  -0.0641127685697
 C7 0.95776 0.437493 0.57408  0.683295342541
 C2 0.811961 0.372341 0.55266  -0.086404612004
 C2 0.761222 0.302803 0.54649  -0.086404612004
 C7 0.623253 0.371344 0.95317  0.683295342541
 C2 0.703934 0.277178 0.06165  -0.086404612004
 C5 0.687553 0.304892 0.9826  -0.0641127685697
 C2 0.73301 0.270812 0.93074  -0.086404612004
 C2 0.792523 0.209449 0.95702  -0.086404612004
 C5 0.808168 0.181066 0.03572  -0.0641127685697
 C2 0.764047 0.216085 0.08805  -0.086404612004
 C7 0.869328 0.11176 0.0618  0.683295342541
 C7 0.99673 0.012327 0.33103  0.683295342541
 C5 0.998147 0.005187 0.4177  -0.0641127685697
 C2 0.943489 0.951013 0.44437  -0.086404612004
 C2 0.054347 0.053627 0.47334  -0.086404612004
 C1 0.73999 0.422724 0.34719  -0.0121229074586
 C2 0.712925 0.347542 0.31276  -0.086404612004
 C2 0.772816 0.288749 0.30695  -0.086404612004
 C3 0.860066 0.306854 0.33380  0.293238342541
 C1 0.883167 0.384686 0.36473  -0.0121229074586
 C4 0.005878 0.263461 0.34273  0.0738433425414
 C5 0.026449 0.303918 0.27123  -0.0641127685697
 C2 0.067244 0.379852 0.27624  -0.086404612004
 C2 0.086646 0.414974 0.20903  -0.086404612004
 C5 0.066039 0.375568 0.13467  -0.0641127685697
 C2 0.025184 0.299066 0.13051  -0.086404612004
 C2 0.005809 0.263923 0.1974  -0.086404612004
 C5 0.08715 0.412582 0.06349  -0.0641127685697
 C2 0.156215 0.466704 0.0705  -0.086404612004
 C2 0.175692 0.501832 0.  -0.086404612004
 C5 0.127728 0.48334 0.92711  -0.0641127685697
 C2 0.059192 0.429149 0.91945  -0.086404612004
 C2 0.038968 0.394753 0.98636  -0.086404612004
 C6 0.148172 0.522309 0.8547  -0.0935966574586
 C1 0.300127 0.50455 0.85861  -0.0121229074586
 C3 0.370015 0.467685 0.83632  0.293238342541
 C2 0.350627 0.405231 0.77847  -0.086404612004
 C2 0.266467 0.381046 0.74900  -0.086404612004
 C1 0.200554 0.418754 0.77412  -0.0121229074586
 C7 0.754313 0.649632 0.44797  0.683295342541
 C5 0.700967 0.724555 0.44622  -0.0641127685697
 C2 0.612576 0.71674 0.43680  -0.086404612004
 C2 0.561501 0.78603 0.42875  -0.086404612004
 C5 0.598169 0.864198 0.43220  -0.0641127685697
 C7 0.541058 0.937196 0.42356  0.683295342541
 C2 0.686892 0.872111 0.44411  -0.086404612004
 C2 0.737661 0.802603 0.45003  -0.086404612004
 C7 0.87656 0.871179 0.0453  0.683295342541
 C2 0.795739 0.777188 0.93711  -0.086404612004
 C5 0.812241 0.804761 0.01609  -0.0641127685697
 C2 0.76684 0.770541 0.06808  -0.086404612004
 C2 0.707313 0.70923 0.04198  -0.086404612004
 C5 0.691586 0.680938 0.96336  -0.0641127685697
 C2 0.735654 0.716091 0.91091  -0.086404612004
 C7 0.630309 0.61167 0.93747  0.683295342541
 C7 0.503397 0.513066 0.66729  0.683295342541
 C5 0.501513 0.505976 0.58052  -0.0641127685697
 C2 0.556261 0.451876 0.55410  -0.086404612004
 C2 0.444826 0.553987 0.52471  -0.086404612004
 C1 0.240144 0.07718 0.34837  -0.0121229074586
 C2 0.213009 0.152076 0.31297  -0.086404612004
 C2 0.272833 0.210859 0.30678  -0.086404612004
 C3 0.360081 0.192985 0.33424  0.293238342541
 C1 0.383264 0.115394 0.36613  -0.0121229074586
 C4 0.505819 0.23639 0.34285  0.0738433425414
 C5 0.526339 0.195851 0.27153  -0.0641127685697
 C2 0.567281 0.119964 0.27694  -0.086404612004
 C2 0.586682 0.084775 0.20990  -0.086404612004
 C5 0.565906 0.124067 0.13531  -0.0641127685697
 C2 0.524843 0.200487 0.13074  -0.086404612004
 C2 0.505479 0.235703 0.19747  -0.086404612004
 C5 0.587029 0.086999 0.06432  -0.0641127685697
 C2 0.656331 0.033125 0.07167  -0.086404612004
 C2 0.675792 0.997866 0.  -0.086404612004
 C5 0.627543 0.015976 0.92835  -0.0641127685697
 C2 0.558782 0.069941 0.92041  -0.086404612004
 C2 0.538597 0.104483 0.9871  -0.086404612004
 C6 0.648048 0.976964 0.85621  -0.0935966574586
 C1 0.799587 0.996466 0.85932  -0.0121229074586
 C3 0.868781 0.03413 0.83646  0.293238342541
 C2 0.848353 0.096168 0.7780  -0.086404612004
 C2 0.763829 0.119338 0.74861  -0.086404612004
 C1 0.698607 0.080952 0.77436  -0.0121229074586
 C7 0.254788 0.850191 0.44948  0.683295342541
 C5 0.201352 0.775253 0.44694  -0.0641127685697
 C2 0.112811 0.783 0.4363  -0.086404612004
 C2 0.061811 0.713665 0.42782  -0.086404612004
 C5 0.0987 0.635563 0.43186  -0.0641127685697
 C7 0.041696 0.562527 0.42286  0.683295342541
 C2 0.187514 0.627702 0.44471  -0.086404612004
 C2 0.23824 0.697269 0.45122  -0.086404612004
 C7 0.376091 0.628965 0.04517  0.683295342541
 C2 0.294543 0.722766 0.93669  -0.086404612004
 C5 0.311642 0.69536 0.01586  -0.0641127685697
 C2 0.266686 0.729711 0.0680  -0.086404612004
 C2 0.207024 0.790993 0.04190  -0.086404612004
 C5 0.190577 0.819009 0.96303  -0.0641127685697
 C2 0.234191 0.783719 0.91042  -0.086404612004
 C7 0.129023 0.888142 0.93705  0.683295342541
 C7 0.002693 0.987502 0.66730  0.683295342541
 C5 0.001214 0.994139 0.58055  -0.0641127685697
 C2 0.055913 0.048269 0.5539  -0.086404612004
 C2 0.945066 0.945628 0.52499  -0.086404612004
 C1 0.259679 0.576893 0.65046  -0.0121229074586
 C2 0.286882 0.651657 0.68578  -0.086404612004
 C2 0.227094 0.710325 0.69220  -0.086404612004
 C3 0.13981 0.6925 0.6650  0.293238342541
 C1 0.116568 0.615037 0.63319  -0.0121229074586
 C4 0.994082 0.736031 0.65654  0.0738433425414
 C5 0.97328 0.695375 0.72784  -0.0641127685697
 C2 0.93246 0.619442 0.72270  -0.086404612004
 C2 0.912989 0.58424 0.78986  -0.086404612004
 C5 0.933593 0.623558 0.86427  -0.0641127685697
 C2 0.974469 0.700046 0.86853  -0.086404612004
 C2 0.993882 0.73528 0.80170  -0.086404612004
 C5 0.912504 0.58656 0.93546  -0.0641127685697
 C2 0.843297 0.532629 0.92848  -0.086404612004
 C2 0.823819 0.497639 0.99534  -0.086404612004
 C5 0.871947 0.51607 0.07193  -0.0641127685697
 C2 0.940654 0.570032 0.07951  -0.086404612004
 C2 0.960865 0.604296 0.01255  -0.086404612004
 C6 0.851396 0.477406 0.14437  -0.0935966574586
 C1 0.699454 0.495329 0.14041  -0.0121229074586
 C3 0.629586 0.532517 0.16240  0.293238342541
 C2 0.648888 0.595385 0.21978  -0.086404612004
 C2 0.733033 0.619717 0.24906  -0.086404612004
 C1 0.79896 0.581712 0.22421  -0.0121229074586
 C7 0.245543 0.350419 0.54919  0.683295342541
 C5 0.298949 0.275448 0.55157  -0.0641127685697
 C2 0.387377 0.283224 0.5612  -0.086404612004
 C2 0.438467 0.213923 0.5698  -0.086404612004
 C5 0.401782 0.135781 0.56663  -0.0641127685697
 C7 0.4589 0.062795 0.57561  0.683295342541
 C2 0.313039 0.127892 0.55456  -0.086404612004
 C2 0.262245 0.197423 0.54810  -0.086404612004
 C7 0.123938 0.127931 0.95287  0.683295342541
 C2 0.203881 0.222704 0.06061  -0.086404612004
 C5 0.188229 0.194421 0.98192  -0.0641127685697
 C2 0.23429 0.228033 0.93019  -0.086404612004
 C2 0.293613 0.289539 0.95625  -0.086404612004
 C5 0.30857 0.318439 0.03463  -0.0641127685697
 C2 0.263895 0.283821 0.08685  -0.086404612004
 C7 0.369581 0.38783 0.06060  0.683295342541
 C7 0.495623 0.486477 0.33087  0.683295342541
 C5 0.497363 0.493942 0.41761  -0.0641127685697
 C2 0.442644 0.548075 0.44403  -0.086404612004
 C2 0.554197 0.446095 0.47346  -0.086404612004
 N1 0.676068 0.940047 0.62541  -0.338236657459
 N2 0.280928 0.980763 0.17089  0.120185842541
 N1 0.82354 0.440281 0.37230  -0.338236657459
 N2 0.219115 0.480321 0.82792  0.120185842541
 N1 0.323704 0.059836 0.37409  -0.338236657459
 N2 0.718203 0.019685 0.82866  0.120185842541
 N1 0.176103 0.559575 0.62505  -0.338236657459
 N2 0.780447 0.519696 0.17091  0.120185842541
 O1 0.777542 0.079728 0.55321  -0.609368879681
 O2 0.664463 0.15973 0.54721  -0.605946657459
 O2 0.035472 0.427253 0.61041  -0.605946657459
 O2 0.92805 0.507097 0.54644  -0.605946657459
 O2 0.902731 0.080119 0.00980  -0.605946657459
 O2 0.882058 0.089429 0.13485  -0.605946657459
 O2 0.618368 0.396208 0.88217  -0.605946657459
 O2 0.580983 0.397987 0.00106  -0.605946657459
 O1 0.037965 0.067256 0.30627  -0.609368879681
 O2 0.950526 0.958712 0.2842  -0.605946657459
 O3 0.052363 0.992689 0.1289  -0.627456657459
 O4 0.584322 0.746069 0.67030  -0.186716657459
 O1 0.722184 0.579441 0.44675  -0.609368879681
 O2 0.833778 0.659694 0.44671  -0.605946657459
 O2 0.463302 0.927045 0.38742  -0.605946657459
 O2 0.570675 0.006803 0.45094  -0.605946657459
 O2 0.596844 0.580293 0.98978  -0.605946657459
 O2 0.617605 0.589312 0.8646  -0.605946657459
 O2 0.881587 0.89589 0.11630  -0.605946657459
 O2 0.918733 0.897999 0.99729  -0.605946657459
 O1 0.462684 0.568068 0.69244  -0.609368879681
 O2 0.549499 0.459066 0.7139  -0.605946657459
 O3 0.447653 0.492685 0.86970  -0.627456657459
 O4 0.915073 0.245731 0.32941  -0.186716657459
 O1 0.222299 0.920374 0.44694  -0.609368879681
 O2 0.33475 0.840287 0.45022  -0.605946657459
 O2 0.964082 0.572777 0.38620  -0.605946657459
 O2 0.07121 0.492867 0.45049  -0.605946657459
 O2 0.096884 0.920256 0.98981  -0.605946657459
 O2 0.114711 0.909682 0.86378  -0.605946657459
 O2 0.381309 0.60419 0.1162  -0.605946657459
 O2 0.418135 0.602166 0.99715  -0.605946657459
 O1 0.961794 0.932699 0.69274  -0.609368879681
 O2 0.048719 0.041514 0.71367  -0.605946657459
 O3 0.946842 0.010282 0.86995  -0.627456657459
 O4 0.41502 0.25411 0.32944  -0.186716657459
 O1 0.277672 0.42059 0.5501  -0.609368879681
 O2 0.165993 0.340412 0.5501  -0.605946657459
 O2 0.536636 0.073035 0.61175  -0.605946657459
 O2 0.429336 0.993068 0.54849  -0.605946657459
 O2 0.403087 0.419456 0.00844  -0.605946657459
 O2 0.382067 0.410178 0.13344  -0.605946657459
 O2 0.121094 0.100888 0.88307  -0.605946657459
 O2 0.079722 0.103418 9.4e-0  -0.605946657459
 O1 0.53825 0.432615 0.30650  -0.609368879681
 O2 0.447765 0.538874 0.2836  -0.605946657459
 O3 0.551973 0.507395 0.12907  -0.627456657459
 O4 0.084971 0.753565 0.67020  -0.186716657459
