#======================================================================

# CRYSTAL DATA

#----------------------------------------------------------------------

data_VESTA_phase_1


_pd_phase_name                         MOF
_cell_length_a                         15.33900
_cell_length_b                         15.30500
_cell_length_c                         15.33400
_cell_angle_alpha                      102.20200
_cell_angle_beta                       102.57400
_cell_angle_gamma                      102.33400
_symmetry_space_group_name_H-M         "P 1"
_symmetry_Int_Tables_number            1

loop_
_symmetry_equiv_pos_as_xyz
   "x, y, z"

loop_
   _atom_site_label
   _atom_site_fract_x
   _atom_site_fract_y
   _atom_site_fract_z
 _atom_site_charge
 Cu1 0.568075 0.980033 0.98050  0.893174215686
 Cu1 0.980166 0.568139 0.97995  0.893174215686
 Cu1 0.980494 0.979796 0.56802  0.893174215686
 Cu1 0.019804 0.431774 0.02000  0.893174215686
 Cu1 0.431844 0.019893 0.01942  0.893174215686
 Cu1 0.019475 0.020136 0.43189  0.893174215686
 H1 0.514604 0.699995 0.98460  0.120106993464
 H1 0.985321 0.515454 0.70055  0.120106993464
 H1 0.70043 0.985289 0.51594  0.120106993464
 H1 0.299732 0.484382 0.01563  0.120106993464
 H1 0.484129 0.014546 0.29960  0.120106993464
 H1 0.0147 0.299664 0.48532  0.120106993464
 H1 0.485353 0.299964 0.01532  0.120106993464
 H1 0.014679 0.48447 0.29939  0.120106993464
 H1 0.299628 0.014816 0.48403  0.120106993464
 H1 0.700293 0.515564 0.98436  0.120106993464
 H1 0.515799 0.985324 0.70034  0.120106993464
 H1 0.9853 0.700253 0.51463  0.120106993464
 H1 0.251324 0.748232 1.5e-0  0.120106993464
 H1 0.000166 0.251368 0.74899  0.120106993464
 H1 0.747768 3.2e-05 0.25221  0.120106993464
 H1 0.748657 0.251705 2e-0  0.120106993464
 H1 0.999854 0.748573 0.25098  0.120106993464
 H1 0.252183 0.999998 0.74771  0.120106993464
 C1 0.423204 0.8311 0.98788  0.68459754902
 C2 0.38683 0.733773 0.99215  -0.0619913398693
 C3 0.445114 0.674964 0.99131  -0.0369274509804
 C1 0.988381 0.423584 0.83148  0.68459754902
 C2 0.992542 0.387245 0.73435  -0.0619913398693
 C3 0.991694 0.445717 0.67556  -0.0369274509804
 C1 0.831085 0.988487 0.42437  0.68459754902
 C2 0.733733 0.992483 0.38793  -0.0619913398693
 C3 0.675178 0.991635 0.44617  -0.0369274509804
 C1 0.168754 0.57608 0.01217  0.68459754902
 C2 0.265901 0.612444 0.00796  -0.0619913398693
 C3 0.324642 0.554059 0.00889  -0.0369274509804
 C1 0.575579 0.011399 0.16888  0.68459754902
 C2 0.612078 0.007416 0.26625  -0.0619913398693
 C3 0.553887 0.008241 0.3248  -0.0369274509804
 C1 0.01187 0.168623 0.57697  0.68459754902
 C2 0.007677 0.265908 0.61332  -0.0619913398693
 C3 0.008375 0.324748 0.55492  -0.0369274509804
 C1 0.576744 0.168841 0.01208  0.68459754902
 C2 0.61312 0.26616 0.00778  -0.0619913398693
 C3 0.55486 0.324993 0.00864  -0.0369274509804
 C1 0.011596 0.576346 0.16847  0.68459754902
 C2 0.007472 0.61269 0.26560  -0.0619913398693
 C3 0.00831 0.554208 0.32439  -0.0369274509804
 C1 0.168908 0.011529 0.57553  0.68459754902
 C2 0.266261 0.007547 0.61200  -0.0619913398693
 C3 0.324842 0.008415 0.55379  -0.0369274509804
 C1 0.831235 0.423833 0.98782  0.68459754902
 C2 0.734082 0.38748 0.99201  -0.0619913398693
 C3 0.675366 0.445888 0.99110  -0.0369274509804
 C1 0.424335 0.98853 0.83105  0.68459754902
 C2 0.387871 0.992551 0.73368  -0.0619913398693
 C3 0.446065 0.991689 0.67509  -0.0369274509804
 C1 0.98812 0.831302 0.42299  0.68459754902
 C2 0.992345 0.734026 0.38664  -0.0619913398693
 C3 0.991628 0.675172 0.44503  -0.0369274509804
 C3 0.296876 0.702663 6.6e-0  -0.0369274509804
 C2 0.414841 0.584533 0.0001  -0.0619913398693
 C4 0.474276 0.525309 5.6e-0  -0.0906924509804
 C3 0.000116 0.296988 0.70338  -0.0369274509804
 C2 2e-06 0.415263 0.58523  -0.0619913398693
 C4 0.999973 0.474568 0.52570  -0.0906924509804
 C3 0.702342 0.999998 0.29766  -0.0369274509804
 C2 0.584668 0.999963 0.41540  -0.0619913398693
 C4 0.525505 0.999982 0.47457  -0.0906924509804
 C3 0.703116 0.297285 0.99997  -0.0369274509804
 C2 0.585167 0.415433 0.99987  -0.0619913398693
 C4 0.525741 0.474666 0.99993  -0.0906924509804
 C3 0.999893 0.702949 0.2965  -0.0369274509804
 C2 0.999997 0.584663 0.4147  -0.0619913398693
 C4 2e-06 0.525348 0.47424  -0.0906924509804
 C3 0.297622 2.5e-05 0.70227  -0.0369274509804
 C2 0.415334 6.4e-05 0.58456  -0.0619913398693
 C4 0.474507 3e-05 0.52541  -0.0906924509804
 O1 0.501721 0.850827 0.97015  -0.558810367647
 O1 0.374319 0.887312 0.00449  -0.558810367647
 O1 0.970403 0.502165 0.85103  -0.558810367647
 O1 0.005231 0.374524 0.88771  -0.558810367647
 O1 0.851151 0.970112 0.50276  -0.558810367647
 O1 0.886937 0.005746 0.37544  -0.558810367647
 O1 0.14899 0.497438 0.03015  -0.558810367647
 O1 0.112664 0.625178 0.99519  -0.558810367647
 O1 0.497118 0.029508 0.14876  -0.558810367647
 O1 0.624512 0.994283 0.11305  -0.558810367647
 O1 0.029732 0.149137 0.4985  -0.558810367647
 O1 0.995212 0.112216 0.62579  -0.558810367647
 O1 0.498198 0.1491 0.02975  -0.558810367647
 O1 0.625612 0.112616 0.99545  -0.558810367647
 O1 0.029714 0.497834 0.14894  -0.558810367647
 O1 0.994571 0.625337 0.11221  -0.558810367647
 O1 0.14882 0.029795 0.497  -0.558810367647
 O1 0.113058 0.994289 0.62447  -0.558810367647
 O1 0.850961 0.502385 0.96966  -0.558810367647
 O1 0.887346 0.374785 0.00493  -0.558810367647
 O1 0.502807 0.970444 0.85118  -0.558810367647
 O1 0.375381 0.005614 0.88686  -0.558810367647
 O1 0.970314 0.850799 0.50146  -0.558810367647
 O1 0.004694 0.887693 0.37413  -0.558810367647
