#======================================================================

# CRYSTAL DATA

#----------------------------------------------------------------------

data_VESTA_phase_1


_pd_phase_name                         MOF
_cell_length_a                         14.25300
_cell_length_b                         15.57400
_cell_length_c                         15.57400
_cell_angle_alpha                      120.05000
_cell_angle_beta                       90.00000
_cell_angle_gamma                      90.00000
_symmetry_space_group_name_H-M         "P 1"
_symmetry_Int_Tables_number            1

loop_
_symmetry_equiv_pos_as_xyz
   "x, y, z"

loop_
   _atom_site_label
   _atom_site_fract_x
   _atom_site_fract_y
   _atom_site_fract_z
 _atom_site_charge
 La1 0.748557 0.333346 0.66680  2.07516746988
 La1 0.748556 0.666684 0.33324  2.07516746988
 La1 0.250672 0.666828 0.33337  2.07516746988
 La1 0.250673 0.333203 0.66665  2.07516746988
 Zn1 0.000344 0.500013 0.50003  1.18560080321
 Zn1 0.000297 0.999993 0.50000  1.18560080321
 Zn1 0.000273 0.500023 4.2e-0  1.18560080321
 Zn1 0.501788 1.8e-05 0.50004  1.18560080321
 Zn1 0.50186 0.499994 0.5000  1.18560080321
 Zn1 0.501815 0.499982 5.5e-0  1.18560080321
 H1 0.739744 0.297514 0.3811  0.0924066365462
 H1 0.836857 0.21458 0.35679  0.0924066365462
 H1 0.739011 0.083288 0.70164  0.0924066365462
 H1 0.836083 0.141244 0.7849  0.0924066365462
 H1 0.738624 0.618184 0.91699  0.0924066365462
 H1 0.835659 0.644033 0.85946  0.0924066365462
 H1 0.739772 0.702548 0.61896  0.0924066365462
 H1 0.836892 0.785461 0.64323  0.0924066365462
 H1 0.739022 0.916721 0.29836  0.0924066365462
 H1 0.836092 0.858751 0.21509  0.0924066365462
 H1 0.738616 0.381865 0.0830  0.0924066365462
 H1 0.835651 0.355999 0.14055  0.0924066365462
 H1 0.761323 0.915179 0.61942  0.0924066365462
 H1 0.66329 0.858427 0.64467  0.0924066365462
 H1 0.760191 0.379518 0.29422  0.0924066365462
 H1 0.662015 0.355937 0.2127  0.0924066365462
 H1 0.760807 0.704909 0.08500  0.0924066365462
 H1 0.662712 0.786703 0.14235  0.0924066365462
 H1 0.761302 0.084848 0.38061  0.0924066365462
 H1 0.663269 0.141612 0.35538  0.0924066365462
 H1 0.76018 0.62051 0.70580  0.0924066365462
 H1 0.662002 0.644083 0.7872  0.0924066365462
 H1 0.76081 0.295078 0.91501  0.0924066365462
 H1 0.662715 0.213287 0.85766  0.0924066365462
 H1 0.26001 0.704372 0.62011  0.0924066365462
 H1 0.162797 0.786857 0.64341  0.0924066365462
 H1 0.260762 0.916074 0.29666  0.0924066365462
 H1 0.163626 0.85755 0.21377  0.0924066365462
 H1 0.261163 0.381128 0.08387  0.0924066365462
 H1 0.164075 0.356087 0.14189  0.0924066365462
 H1 0.25999 0.295632 0.37988  0.0924066365462
 H1 0.162777 0.213156 0.35661  0.0924066365462
 H1 0.260754 0.08394 0.70333  0.0924066365462
 H1 0.163617 0.142458 0.7862  0.0924066365462
 H1 0.261136 0.61893 0.9161  0.0924066365462
 H1 0.164044 0.643928 0.85808  0.0924066365462
 H1 0.24134 0.083969 0.38075  0.0924066365462
 H1 0.338464 0.142399 0.35632  0.0924066365462
 H1 0.242603 0.6201 0.70462  0.0924066365462
 H1 0.339783 0.642746 0.78697  0.0924066365462
 H1 0.241871 0.296146 0.91577  0.0924066365462
 H1 0.339032 0.213476 0.85673  0.0924066365462
 H1 0.241325 0.91606 0.61926  0.0924066365462
 H1 0.338448 0.857636 0.64370  0.0924066365462
 H1 0.242636 0.379886 0.29533  0.0924066365462
 H1 0.33982 0.357297 0.21300  0.0924066365462
 H1 0.241893 0.703854 0.08423  0.0924066365462
 H1 0.339054 0.786522 0.1432  0.0924066365462
 C1 0.856301 0.359813 0.48192  0.728440803213
 C2 0.793329 0.27307 0.41541  -0.0646758634538
 C1 0.856153 0.121683 0.64005  0.728440803213
 C2 0.792875 0.141857 0.72651  -0.0646758634538
 C1 0.856071 0.518496 0.87855  0.728440803213
 C2 0.792632 0.58476 0.85854  -0.0646758634538
 C1 0.856303 0.640211 0.5181  0.728440803213
 C2 0.793348 0.72697 0.58463  -0.0646758634538
 C1 0.856158 0.87833 0.35995  0.728440803213
 C2 0.792882 0.858149 0.27349  -0.0646758634538
 C1 0.85607 0.481546 0.12148  0.728440803213
 C2 0.792627 0.415279 0.14149  -0.0646758634538
 C1 0.643816 0.879427 0.52021  0.728440803213
 C2 0.706607 0.85755 0.58558  -0.0646758634538
 C1 0.643648 0.47992 0.35891  0.728440803213
 C2 0.705895 0.414318 0.27112  -0.0646758634538
 C1 0.643726 0.640909 0.12065  0.728440803213
 C2 0.706285 0.728416 0.14277  -0.0646758634538
 C1 0.643809 0.120616 0.47985  0.728440803213
 C2 0.706593 0.142483 0.41446  -0.0646758634538
 C1 0.643649 0.520093 0.64111  0.728440803213
 C2 0.705888 0.585706 0.72891  -0.0646758634538
 C1 0.643724 0.35909 0.87939  0.728440803213
 C2 0.706286 0.27158 0.85724  -0.0646758634538
 C1 0.143769 0.640935 0.5189  0.728440803213
 C2 0.206501 0.72819 0.58517  -0.0646758634538
 C1 0.143885 0.878434 0.35930  0.728440803213
 C2 0.20697 0.857489 0.27237  -0.0646758634538
 C1 0.143937 0.481064 0.12164  0.728440803213
 C2 0.207211 0.415068 0.14234  -0.0646758634538
 C1 0.143766 0.359089 0.48106  0.728440803213
 C2 0.20649 0.271827 0.41484  -0.0646758634538
 C1 0.14388 0.121592 0.64070  0.728440803213
 C2 0.206963 0.142526 0.72762  -0.0646758634538
 C1 0.143932 0.518968 0.87837  0.728440803213
 C2 0.207193 0.584965 0.85765  -0.0646758634538
 C1 0.35811 0.122052 0.48129  0.728440803213
 C2 0.295072 0.142631 0.41504  -0.0646758634538
 C1 0.358356 0.518304 0.64099  0.728440803213
 C2 0.295834 0.584795 0.72832  -0.0646758634538
 C1 0.358204 0.359103 0.87774  0.728440803213
 C2 0.295392 0.272034 0.85695  -0.0646758634538
 C1 0.358108 0.877988 0.51874  0.728440803213
 C2 0.295062 0.857403 0.58498  -0.0646758634538
 C1 0.358361 0.481713 0.35900  0.728440803213
 C2 0.295856 0.415223 0.27166  -0.0646758634538
 C1 0.358213 0.640902 0.12229  0.728440803213
 C2 0.295407 0.72797 0.14306  -0.0646758634538
 O1 0.859624 0.389902 0.57372  -0.684585863454
 O2 0.901621 0.39364 0.43477  -0.645639196787
 O1 0.85958 0.183373 0.61000  -0.684585863454
 O2 0.901554 0.040706 0.60630  -0.645639196787
 O1 0.859525 0.426677 0.81678  -0.684585863454
 O2 0.901523 0.565777 0.95950  -0.645639196787
 O1 0.859616 0.610106 0.42632  -0.684585863454
 O2 0.90162 0.606392 0.56528  -0.645639196787
 O1 0.859582 0.816644 0.3900  -0.684585863454
 O2 0.901562 0.959304 0.39370  -0.645639196787
 O1 0.859531 0.573362 0.18327  -0.684585863454
 O2 0.90152 0.434269 0.04053  -0.645639196787
 O1 0.638527 0.817612 0.42849  -0.684585863454
 O2 0.600562 0.96176 0.56790  -0.645639196787
 O1 0.638535 0.571645 0.38895  -0.684585863454
 O2 0.600528 0.43233 0.39367  -0.645639196787
 O1 0.638475 0.610942 0.18233  -0.684585863454
 O2 0.600533 0.606198 0.03828  -0.645639196787
 O1 0.638526 0.182442 0.57156  -0.684585863454
 O2 0.600554 0.038283 0.43217  -0.645639196787
 O1 0.638544 0.428368 0.61107  -0.684585863454
 O2 0.600524 0.567674 0.60635  -0.645639196787
 O1 0.638463 0.389076 0.81772  -0.684585863454
 O2 0.600538 0.39378 0.96176  -0.645639196787
 O1 0.140272 0.610567 0.42711  -0.684585863454
 O2 0.098823 0.606961 0.56621  -0.645639196787
 O1 0.140277 0.81699 0.38964  -0.684585863454
 O2 0.09882 0.959635 0.39316  -0.645639196787
 O1 0.140292 0.572913 0.18322  -0.684585863454
 O2 0.098824 0.433697 0.04046  -0.645639196787
 O1 0.14027 0.389456 0.57290  -0.684585863454
 O2 0.098825 0.393072 0.43381  -0.645639196787
 O1 0.140275 0.183041 0.61036  -0.684585863454
 O2 0.098814 0.040391 0.60683  -0.645639196787
 O1 0.140292 0.427118 0.81679  -0.684585863454
 O2 0.098824 0.566336 0.9595  -0.645639196787
 O1 0.361562 0.183659 0.57313  -0.684585863454
 O2 0.403296 0.040906 0.43408  -0.645639196787
 O1 0.361679 0.426479 0.61070  -0.684585863454
 O2 0.403386 0.565402 0.60692  -0.645639196787
 O1 0.361614 0.389368 0.8162  -0.684585863454
 O2 0.403328 0.39311 0.9589  -0.645639196787
 O1 0.361561 0.816393 0.42690  -0.684585863454
 O2 0.403297 0.959132 0.56597  -0.645639196787
 O1 0.361672 0.573541 0.38931  -0.684585863454
 O2 0.40339 0.434609 0.3930  -0.645639196787
 O1 0.361625 0.610665 0.1838  -0.684585863454
 O2 0.403332 0.606863 0.04111  -0.645639196787
 O3 0.749024 0.237134 0.4732  -0.321229196787
 O3 0.749006 0.235901 0.76279  -0.321229196787
 O3 0.748976 0.526956 0.76435  -0.321229196787
 O3 0.749027 0.762894 0.52683  -0.321229196787
 O3 0.749008 0.764109 0.23722  -0.321229196787
 O3 0.748976 0.473077 0.23568  -0.321229196787
 O3 0.250954 0.763505 0.52690  -0.321229196787
 O3 0.250973 0.76359 0.23673  -0.321229196787
 O3 0.25097 0.473319 0.23641  -0.321229196787
 O3 0.250957 0.236526 0.47311  -0.321229196787
 O3 0.250969 0.236425 0.76327  -0.321229196787
 O3 0.250966 0.526709 0.76359  -0.321229196787
