#======================================================================

# CRYSTAL DATA

#----------------------------------------------------------------------

data_VESTA_phase_1


_pd_phase_name                         MOF
_cell_length_a                         14.73200
_cell_length_b                         14.77900
_cell_length_c                         15.75700
_cell_angle_alpha                      117.88100
_cell_angle_beta                       97.49500
_cell_angle_gamma                      89.92000
_symmetry_space_group_name_H-M         "P 1"
_symmetry_Int_Tables_number            1

loop_
_symmetry_equiv_pos_as_xyz
   "x, y, z"

loop_
   _atom_site_label
   _atom_site_fract_x
   _atom_site_fract_y
   _atom_site_fract_z
 _atom_site_charge
 Cd1 0.12484 0.058025 4.3e-0  0.801255603448
 Cd1 0.624828 0.057915 0.00010  0.801255603448
 Cd1 0.374829 0.942371 0.99976  0.801255603448
 Cd1 0.875068 0.942465 5.1e-0  0.801255603448
 Cu1 0.250429 0.999874 0.50010  0.752155603448
 Cu1 0.750437 0.000189 0.5000  0.752155603448
 Cu1 0.999626 0.499896 0.49991  0.752155603448
 Cu1 0.499878 0.500225 0.50003  0.752155603448
 H1 0.227145 0.654011 0.33528  0.0835199216301
 H1 0.727095 0.653859 0.33540  0.0835199216301
 H1 0.261111 0.529177 0.39805  0.0835199216301
 H1 0.760543 0.529406 0.39864  0.0835199216301
 H1 0.321548 0.590485 0.5724  0.0835199216301
 H1 0.820707 0.591025 0.57315  0.0835199216301
 H1 0.348278 0.778266 0.68378  0.0835199216301
 H1 0.847609 0.778841 0.68415  0.0835199216301
 H1 0.347906 0.942782 0.71591  0.0835199216301
 H1 0.847168 0.943138 0.71594  0.0835199216301
 H1 0.377097 0.103105 0.76658  0.0835199216301
 H1 0.876791 0.103423 0.76644  0.0835199216301
 H1 0.333093 0.166041 0.69769  0.0835199216301
 H1 0.832564 0.166437 0.69773  0.0835199216301
 H1 0.168427 0.207919 0.69245  0.0835199216301
 H1 0.667983 0.208008 0.69257  0.0835199216301
 H1 0.032337 0.249168 0.78389  0.0835199216301
 H1 0.532034 0.249313 0.78423  0.0835199216301
 H1 0.027472 0.191553 0.90978  0.0835199216301
 H1 0.527427 0.191745 0.91020  0.0835199216301
 H1 0.279998 0.067437 0.86561  0.0835199216301
 H1 0.779743 0.067258 0.86542  0.0835199216301
 H1 0.023324 0.318346 0.66468  0.0835199216301
 H1 0.523416 0.318161 0.66468  0.0835199216301
 H1 0.490254 0.130703 0.60146  0.0835199216301
 H1 0.989519 0.130998 0.6019  0.0835199216301
 H1 0.429868 0.018455 0.42701  0.0835199216301
 H1 0.928781 0.018602 0.42758  0.0835199216301
 H1 0.402442 0.095698 0.31607  0.0835199216301
 H1 0.901541 0.095524 0.3163  0.0835199216301
 H1 0.402548 0.228278 0.28428  0.0835199216301
 H1 0.901736 0.22799 0.2842  0.0835199216301
 H1 0.37295 0.338354 0.23372  0.0835199216301
 H1 0.872744 0.337871 0.23347  0.0835199216301
 H1 0.417636 0.469599 0.30222  0.0835199216301
 H1 0.917171 0.469237 0.30218  0.0835199216301
 H1 0.081836 0.515237 0.30710  0.0835199216301
 H1 0.582128 0.515149 0.3069  0.0835199216301
 H1 0.217725 0.464353 0.21537  0.0835199216301
 H1 0.71794 0.464085 0.21511  0.0835199216301
 H1 0.222167 0.281036 0.08968  0.0835199216301
 H1 0.722201 0.280684 0.08947  0.0835199216301
 H1 0.469788 0.202508 0.13483  0.0835199216301
 H1 0.96965 0.202533 0.13462  0.0835199216301
 H1 0.275229 0.345961 0.6645  0.0835199216301
 H1 0.774142 0.346533 0.66432  0.0835199216301
 H1 0.239654 0.470598 0.60188  0.0835199216301
 H1 0.73868 0.470847 0.60133  0.0835199216301
 H1 0.177413 0.409069 0.42786  0.0835199216301
 H1 0.677368 0.409024 0.42  0.0835199216301
 H1 0.150273 0.221257 0.31689  0.0835199216301
 H1 0.650827 0.221138 0.31617  0.0835199216301
 H1 0.151991 0.056904 0.28467  0.0835199216301
 H1 0.652007 0.056975 0.28439  0.0835199216301
 H1 0.123145 0.89645 0.23393  0.0835199216301
 H1 0.623124 0.896747 0.23380  0.0835199216301
 H1 0.167834 0.833479 0.30254  0.0835199216301
 H1 0.667503 0.83376 0.30250  0.0835199216301
 H1 0.332399 0.792145 0.30730  0.0835199216301
 H1 0.832135 0.79224 0.30737  0.0835199216301
 H1 0.468088 0.750952 0.21527  0.0835199216301
 H1 0.967986 0.751013 0.21555  0.0835199216301
 H1 0.472241 0.808721 0.08939  0.0835199216301
 H1 0.972371 0.808727 0.08965  0.0835199216301
 H1 0.219872 0.932961 0.13479  0.0835199216301
 H1 0.7199 0.932816 0.13456  0.0835199216301
 H1 0.476759 0.682083 0.33532  0.0835199216301
 H1 0.975372 0.681849 0.33526  0.0835199216301
 H1 0.010709 0.868923 0.39794  0.0835199216301
 H1 0.510933 0.869301 0.3982  0.0835199216301
 H1 0.072457 0.980875 0.57208  0.0835199216301
 H1 0.57188 0.981546 0.57256  0.0835199216301
 H1 0.099404 0.903716 0.68313  0.0835199216301
 H1 0.598814 0.904442 0.6836  0.0835199216301
 H1 0.097823 0.771559 0.71537  0.0835199216301
 H1 0.598292 0.771945 0.71561  0.0835199216301
 H1 0.126925 0.661564 0.76613  0.0835199216301
 H1 0.626957 0.662155 0.76641  0.0835199216301
 H1 0.082042 0.530375 0.6976  0.0835199216301
 H1 0.582392 0.530847 0.69780  0.0835199216301
 H1 0.417888 0.485156 0.69306  0.0835199216301
 H1 0.917453 0.485068 0.69290  0.0835199216301
 H1 0.281992 0.536159 0.78483  0.0835199216301
 H1 0.781678 0.536359 0.78480  0.0835199216301
 H1 0.277611 0.719571 0.91039  0.0835199216301
 H1 0.777635 0.719763 0.91048  0.0835199216301
 H1 0.030256 0.797539 0.8651  0.0835199216301
 H1 0.530067 0.797846 0.86519  0.0835199216301
 C1 0.269344 0.787864 0.47281  0.397650603448
 C1 0.769118 0.787996 0.47283  0.397650603448
 C2 0.254028 0.680148 0.41146  -0.103844396552
 C2 0.753836 0.680229 0.41164  -0.103844396552
 C2 0.272646 0.611355 0.4470  -0.103844396552
 C2 0.772144 0.611606 0.44750  -0.103844396552
 C2 0.306742 0.645463 0.54555  -0.103844396552
 C2 0.80604 0.645883 0.54607  -0.103844396552
 C2 0.322001 0.749634 0.60701  -0.103844396552
 C2 0.82141 0.750054 0.60734  -0.103844396552
 C3 0.303382 0.822198 0.5730  -0.135616896552
 C3 0.802988 0.822465 0.57317  -0.135616896552
 C4 0.318255 0.928046 0.64246  0.171295603448
 C4 0.81782 0.928313 0.64238  0.171295603448
 C5 0.317579 0.107704 0.71901  0.0458256034483
 C5 0.8172 0.107952 0.7189  0.0458256034483
 C3 0.235164 0.135469 0.77239  -0.135616896552
 C3 0.734816 0.135455 0.77233  -0.135616896552
 C2 0.164049 0.187016 0.74970  -0.103844396552
 C2 0.66366 0.187049 0.74979  -0.103844396552
 C2 0.088728 0.208933 0.7996  -0.103844396552
 C2 0.588438 0.209019 0.79987  -0.103844396552
 C4 0.085582 0.17769 0.86995  0.171295603448
 C4 0.585425 0.177777 0.870  0.171295603448
 C4 0.226493 0.107371 0.84461  0.171295603448
 C4 0.726239 0.107263 0.84451  0.171295603448
 C1 0.480994 0.315395 0.5273  0.397650603448
 C1 0.980722 0.315236 0.52724  0.397650603448
 C2 0.496556 0.268567 0.58847  -0.103844396552
 C2 0.996301 0.26861 0.58854  -0.103844396552
 C2 0.478415 0.164217 0.55262  -0.103844396552
 C2 0.977799 0.16436 0.5529  -0.103844396552
 C2 0.44438 0.1003 0.45409  -0.103844396552
 C2 0.943542 0.100373 0.45448  -0.103844396552
 C2 0.428726 0.143435 0.39285  -0.103844396552
 C2 0.927984 0.14334 0.39307  -0.103844396552
 C3 0.446993 0.249894 0.42703  -0.135616896552
 C3 0.946505 0.2497 0.42701  -0.135616896552
 C4 0.431982 0.28674 0.35779  0.171295603448
 C4 0.931506 0.286402 0.35764  0.171295603448
 C5 0.432712 0.389895 0.28113  0.0458256034483
 C5 0.932403 0.389539 0.2809  0.0458256034483
 C3 0.014786 0.363405 0.22747  -0.135616896552
 C3 0.514998 0.363413 0.2275  -0.135616896552
 C2 0.086039 0.437153 0.24993  -0.103844396552
 C2 0.586302 0.43705 0.24982  -0.103844396552
 C2 0.161251 0.408738 0.19984  -0.103844396552
 C2 0.661442 0.408525 0.19965  -0.103844396552
 C4 0.164167 0.30729 0.12965  0.171295603448
 C4 0.664263 0.307037 0.12952  0.171295603448
 C4 0.023266 0.263123 0.15540  0.171295603448
 C4 0.52339 0.263063 0.15554  0.171295603448
 C1 0.232245 0.211957 0.52735  0.397650603448
 C1 0.731871 0.212287 0.52709  0.397650603448
 C2 0.247435 0.319723 0.58857  -0.103844396552
 C2 0.746808 0.320078 0.58820  -0.103844396552
 C2 0.227974 0.388402 0.55301  -0.103844396552
 C2 0.727369 0.388627 0.5524  -0.103844396552
 C2 0.192876 0.354169 0.45473  -0.103844396552
 C2 0.692752 0.35425 0.45405  -0.103844396552
 C2 0.177432 0.249991 0.39347  -0.103844396552
 C2 0.677622 0.250025 0.39286  -0.103844396552
 C3 0.196938 0.1775 0.42734  -0.135616896552
 C3 0.696997 0.177696 0.42694  -0.135616896552
 C4 0.181905 0.071659 0.35805  0.171295603448
 C4 0.681982 0.071813 0.35778  0.171295603448
 C5 0.182914 0.892016 0.2813  0.0458256034483
 C5 0.682803 0.892205 0.28124  0.0458256034483
 C3 0.265181 0.864652 0.22769  -0.135616896552
 C3 0.765084 0.86466 0.22762  -0.135616896552
 C2 0.336489 0.813083 0.25004  -0.103844396552
 C2 0.836327 0.813095 0.25007  -0.103844396552
 C2 0.411583 0.791231 0.19978  -0.103844396552
 C2 0.911515 0.791258 0.19995  -0.103844396552
 C4 0.414342 0.822585 0.12951  0.171295603448
 C4 0.914391 0.822556 0.1296  0.171295603448
 C4 0.273498 0.892961 0.15553  0.171295603448
 C4 0.773487 0.892857 0.15541  0.171295603448
 C1 0.017995 0.684633 0.47255  0.397650603448
 C1 0.519316 0.684915 0.47267  0.397650603448
 C2 0.002966 0.731357 0.4112  -0.103844396552
 C2 0.503867 0.731655 0.41146  -0.103844396552
 C2 0.022291 0.835461 0.44685  -0.103844396552
 C2 0.522604 0.83589 0.44714  -0.103844396552
 C2 0.057108 0.899205 0.54520  -0.103844396552
 C2 0.556957 0.89978 0.54558  -0.103844396552
 C2 0.072448 0.856113 0.6065  -0.103844396552
 C2 0.572331 0.856716 0.60692  -0.103844396552
 C3 0.053082 0.749877 0.57262  -0.135616896552
 C3 0.553559 0.750389 0.57291  -0.135616896552
 C4 0.068071 0.713143 0.64196  0.171295603448
 C4 0.568426 0.713592 0.64222  0.171295603448
 C5 0.067096 0.610119 0.71876  0.0458256034483
 C5 0.567242 0.610555 0.71895  0.0458256034483
 C3 0.48492 0.636928 0.77251  -0.135616896552
 C3 0.9848 0.636712 0.77240  -0.135616896552
 C2 0.413669 0.563242 0.75021  -0.103844396552
 C2 0.913392 0.563175 0.75008  -0.103844396552
 C2 0.338467 0.591749 0.80030  -0.103844396552
 C2 0.838263 0.591827 0.80026  -0.103844396552
 C4 0.33559 0.693234 0.87040  0.171295603448
 C4 0.835563 0.693325 0.8704  0.171295603448
 C4 0.47649 0.737267 0.84449  0.171295603448
 C4 0.97653 0.737078 0.84443  0.171295603448
 N1 0.299665 0.007702 0.62947  -0.382969396552
 N1 0.799576 0.007976 0.62928  -0.382969396552
 N2 0.153206 0.127391 0.89211  -0.321484396552
 N2 0.653055 0.127369 0.89218  -0.321484396552
 N1 0.450262 0.379361 0.3708  -0.382969396552
 N1 0.950218 0.37888 0.3705  -0.382969396552
 N2 0.096455 0.23526 0.10777  -0.321484396552
 N2 0.596514 0.235102 0.10779  -0.321484396552
 N1 0.200615 0.991971 0.37096  -0.382969396552
 N1 0.700651 0.992195 0.37081  -0.382969396552
 N2 0.346576 0.87298 0.10772  -0.321484396552
 N2 0.846656 0.8729 0.10773  -0.321484396552
 N1 0.049482 0.620643 0.62906  -0.382969396552
 N1 0.549582 0.621138 0.62930  -0.382969396552
 N2 0.403315 0.765208 0.89216  -0.321484396552
 N2 0.903414 0.765165 0.89219  -0.321484396552
 Cl1 0.047444 0.9964 0.10726  -0.509044396552
 Cl1 0.547229 0.996248 0.1070  -0.509044396552
 Cl1 0.202353 0.889287 0.89283  -0.509044396552
 Cl1 0.702532 0.889393 0.8930  -0.509044396552
 Cl1 0.452546 0.003957 0.89272  -0.509044396552
 Cl1 0.952418 0.004253 0.89301  -0.509044396552
 Cl1 0.297392 0.111082 0.10676  -0.509044396552
 Cl1 0.79731 0.111011 0.10708  -0.509044396552
 O1 0.253383 0.849574 0.43506  -0.544989396552
 O1 0.753169 0.849623 0.43499  -0.544989396552
 O1 0.496815 0.414729 0.56520  -0.544989396552
 O1 0.996567 0.414561 0.56502  -0.544989396552
 O1 0.249698 0.150363 0.56499  -0.544989396552
 O1 0.74902 0.150792 0.56490  -0.544989396552
 O1 0.000565 0.585555 0.43491  -0.544989396552
 O1 0.503365 0.5856 0.43486  -0.544989396552
