#======================================================================

# CRYSTAL DATA

#----------------------------------------------------------------------

data_VESTA_phase_1


_pd_phase_name                         MOF
_cell_length_a                         20.78100
_cell_length_b                         12.14500
_cell_length_c                         12.14400
_cell_angle_alpha                      96.95800
_cell_angle_beta                       105.25900
_cell_angle_gamma                      74.89100
_symmetry_space_group_name_H-M         "P 1"
_symmetry_Int_Tables_number            1

loop_
_symmetry_equiv_pos_as_xyz
   "x, y, z"

loop_
   _atom_site_label
   _atom_site_fract_x
   _atom_site_fract_y
   _atom_site_fract_z
 _atom_site_charge
 Zn1 0.125149 0.116962 0.11798  1.06490315217
 Zn1 0.625151 0.116943 0.11806  1.06490315217
 Zn1 0.374854 0.883096 0.88205  1.06490315217
 Zn1 0.874861 0.883081 0.88217  1.06490315217
 Zn1 3e-06 9e-06 1.9e-0  1.06490315217
 Zn1 0.499999 5e-06 1.4e-0  1.06490315217
 Zn1 0.249998 2e-06 0.99999  1.06490315217
 Zn1 0.749988 5e-06 2.1e-0  1.06490315217
 H1 0.450053 0.191402 0.82902  0.108258985507
 H1 0.950047 0.191391 0.82898  0.108258985507
 H1 0.369578 0.21815 0.63902  0.108258985507
 H1 0.869576 0.218135 0.63897  0.108258985507
 H1 0.122389 0.089924 0.67532  0.108258985507
 H1 0.622383 0.089908 0.67534  0.108258985507
 H1 0.102488 0.101215 0.46299  0.108258985507
 H1 0.602475 0.101192 0.46301  0.108258985507
 H1 0.396519 0.141125 0.25514  0.108258985507
 H1 0.896533 0.141098 0.25511  0.108258985507
 H1 0.349571 0.19066 0.42691  0.108258985507
 H1 0.849578 0.190636 0.42687  0.108258985507
 H1 0.299957 0.829091 0.19124  0.108258985507
 H1 0.799944 0.829075 0.19128  0.108258985507
 H1 0.380451 0.639494 0.21801  0.108258985507
 H1 0.880437 0.63948 0.21808  0.108258985507
 H1 0.127577 0.674664 0.09005  0.108258985507
 H1 0.627565 0.674646 0.09007  0.108258985507
 H1 0.14758 0.462288 0.10149  0.108258985507
 H1 0.647566 0.462273 0.10153  0.108258985507
 H1 0.353507 0.255584 0.14135  0.108258985507
 H1 0.853494 0.255573 0.14139  0.108258985507
 H1 0.400423 0.427615 0.19065  0.108258985507
 H1 0.900409 0.427601 0.19071  0.108258985507
 H1 0.049947 0.808649 0.17109  0.108258985507
 H1 0.549942 0.808638 0.17103  0.108258985507
 H1 0.130417 0.781901 0.36110  0.108258985507
 H1 0.630416 0.78189 0.36103  0.108258985507
 H1 0.377608 0.910128 0.32470  0.108258985507
 H1 0.877602 0.910111 0.32473  0.108258985507
 H1 0.397513 0.898842 0.53704  0.108258985507
 H1 0.8975 0.898812 0.53708  0.108258985507
 H1 0.103455 0.858946 0.74495  0.108258985507
 H1 0.60347 0.858915 0.74490  0.108258985507
 H1 0.15041 0.809408 0.57319  0.108258985507
 H1 0.650418 0.809381 0.57314  0.108258985507
 H1 0.200051 0.170958 0.8087  0.108258985507
 H1 0.70004 0.170944 0.80879  0.108258985507
 H1 0.119558 0.360554 0.78195  0.108258985507
 H1 0.619545 0.360537 0.78200  0.108258985507
 H1 0.372429 0.32539 0.90995  0.108258985507
 H1 0.872417 0.325375 0.9099  0.108258985507
 H1 0.352428 0.537762 0.89850  0.108258985507
 H1 0.852417 0.537745 0.89855  0.108258985507
 H1 0.1465 0.744462 0.85864  0.108258985507
 H1 0.646488 0.744448 0.8586  0.108258985507
 H1 0.099585 0.572433 0.80931  0.108258985507
 H1 0.599573 0.572419 0.80936  0.108258985507
 C1 0.087731 0.108055 0.87812  0.709073152174
 C1 0.587734 0.108044 0.87815  0.709073152174
 C2 0.041394 0.136708 0.7636  -0.0561118478261
 C2 0.541393 0.136702 0.76367  -0.0561118478261
 C3 0.469497 0.176646 0.75253  -0.0779301811594
 C3 0.969493 0.176641 0.75249  -0.0779301811594
 C3 0.424861 0.190955 0.6466  -0.0779301811594
 C3 0.924861 0.190947 0.64657  -0.0779301811594
 C2 0.449566 0.167974 0.54587  -0.0561118478261
 C2 0.94957 0.167976 0.54584  -0.0561118478261
 C2 0.022587 0.136798 0.55653  -0.0561118478261
 C2 0.522578 0.136787 0.55656  -0.0561118478261
 C3 0.067219 0.120114 0.6669  -0.0779301811594
 C3 0.567214 0.120103 0.66694  -0.0779301811594
 C3 0.047372 0.119902 0.45597  -0.0779301811594
 C3 0.54736 0.119887 0.45  -0.0779301811594
 C1 0.027687 0.108246 0.24219  0.709073152174
 C1 0.527679 0.108233 0.24223  0.709073152174
 C2 0.002374 0.124663 0.34873  -0.0561118478261
 C2 0.50236 0.124656 0.34876  -0.0561118478261
 C3 0.430691 0.145503 0.3394  -0.0779301811594
 C3 0.930703 0.14549 0.33942  -0.0779301811594
 C3 0.404902 0.170803 0.43520  -0.0779301811594
 C3 0.904909 0.170789 0.43517  -0.0779301811594
 C1 0.162308 0.877689 0.10823  0.709073152174
 C1 0.662299 0.877672 0.10823  0.709073152174
 C2 0.2086 0.763324 0.13669  -0.0561118478261
 C2 0.708587 0.763308 0.13671  -0.0561118478261
 C3 0.280521 0.752512 0.17655  -0.0779301811594
 C3 0.780508 0.752497 0.17659  -0.0779301811594
 C3 0.325158 0.646824 0.19086  -0.0779301811594
 C3 0.825145 0.64681 0.19092  -0.0779301811594
 C2 0.300436 0.545999 0.16797  -0.0561118478261
 C2 0.800422 0.545985 0.16803  -0.0561118478261
 C2 0.227422 0.556313 0.13687  -0.0561118478261
 C2 0.727408 0.556298 0.13691  -0.0561118478261
 C3 0.182768 0.666498 0.12017  -0.0779301811594
 C3 0.682755 0.666482 0.12020  -0.0779301811594
 C3 0.20268 0.45559 0.12011  -0.0779301811594
 C3 0.702666 0.455575 0.12015  -0.0779301811594
 C1 0.222484 0.241822 0.108  0.709073152174
 C1 0.722474 0.241806 0.10875  0.709073152174
 C2 0.247695 0.348595 0.12493  -0.0561118478261
 C2 0.747682 0.34858 0.12498  -0.0561118478261
 C3 0.319334 0.33969 0.1456  -0.0779301811594
 C3 0.819321 0.339678 0.14572  -0.0779301811594
 C3 0.345106 0.435585 0.17086  -0.0779301811594
 C3 0.845092 0.435573 0.17091  -0.0779301811594
 C1 0.412267 0.891993 0.12190  0.709073152174
 C1 0.912273 0.891984 0.12195  0.709073152174
 C2 0.458602 0.863335 0.23638  -0.0561118478261
 C2 0.958601 0.863329 0.2364  -0.0561118478261
 C3 0.030502 0.823397 0.24758  -0.0779301811594
 C3 0.530498 0.82339 0.24752  -0.0779301811594
 C3 0.075132 0.809088 0.35350  -0.0779301811594
 C3 0.575132 0.809083 0.35344  -0.0779301811594
 C2 0.050419 0.832057 0.4542  -0.0561118478261
 C2 0.550424 0.832064 0.45417  -0.0561118478261
 C2 0.477412 0.863245 0.44349  -0.0561118478261
 C2 0.977402 0.863236 0.44354  -0.0561118478261
 C3 0.432777 0.879931 0.33310  -0.0779301811594
 C3 0.932772 0.879923 0.33315  -0.0779301811594
 C3 0.452629 0.880146 0.54405  -0.0779301811594
 C3 0.952616 0.880127 0.54410  -0.0779301811594
 C1 0.472317 0.891802 0.75783  0.709073152174
 C1 0.972309 0.891789 0.75789  0.709073152174
 C2 0.497628 0.875377 0.6512  -0.0561118478261
 C2 0.997613 0.875368 0.65133  -0.0561118478261
 C3 0.069285 0.854547 0.66065  -0.0779301811594
 C3 0.569297 0.854534 0.66060  -0.0779301811594
 C3 0.095079 0.829249 0.56489  -0.0779301811594
 C3 0.595087 0.829235 0.56484  -0.0779301811594
 C1 0.337697 0.122364 0.89180  0.709073152174
 C1 0.837687 0.12235 0.89183  0.709073152174
 C2 0.291408 0.236726 0.86331  -0.0561118478261
 C2 0.791397 0.23671 0.8633  -0.0561118478261
 C3 0.219488 0.247536 0.82343  -0.0779301811594
 C3 0.719476 0.247522 0.82348  -0.0779301811594
 C3 0.17485 0.353223 0.80911  -0.0779301811594
 C3 0.674837 0.353209 0.80916  -0.0779301811594
 C2 0.199572 0.45405 0.83200  -0.0561118478261
 C2 0.69956 0.454034 0.83204  -0.0561118478261
 C2 0.272586 0.443736 0.86311  -0.0561118478261
 C2 0.772574 0.443722 0.86316  -0.0561118478261
 C3 0.31724 0.333552 0.87982  -0.0779301811594
 C3 0.817227 0.333538 0.8798  -0.0779301811594
 C3 0.297328 0.544459 0.87988  -0.0779301811594
 C3 0.797316 0.544444 0.87993  -0.0779301811594
 C1 0.277522 0.758228 0.89129  0.709073152174
 C1 0.777517 0.75821 0.89138  0.709073152174
 C2 0.252313 0.651454 0.87506  -0.0561118478261
 C2 0.752301 0.651439 0.87511  -0.0561118478261
 C3 0.180673 0.660357 0.85431  -0.0779301811594
 C3 0.680661 0.660342 0.85436  -0.0779301811594
 C3 0.154902 0.564462 0.82912  -0.0779301811594
 C3 0.65489 0.564447 0.82917  -0.0779301811594
 O1 0.058551 0.119719 0.96376  -0.610143722826
 O1 0.558561 0.119697 0.96380  -0.610143722826
 O1 0.088343 0.120722 0.25169  -0.610143722826
 O1 0.588342 0.120697 0.25176  -0.610143722826
 O1 0.48663 0.086154 0.14870  -0.610143722826
 O1 0.986621 0.086182 0.14867  -0.610143722826
 O1 0.151613 0.075688 0.88880  -0.610143722826
 O1 0.651614 0.075657 0.88882  -0.610143722826
 O1 0.191612 0.963323 0.11998  -0.610143722826
 O1 0.691606 0.963306 0.1200  -0.610143722826
 O1 0.162002 0.250838 0.12156  -0.610143722826
 O1 0.661991 0.250826 0.12162  -0.610143722826
 O1 0.263499 0.148626 0.0864  -0.610143722826
 O1 0.763495 0.148599 0.08650  -0.610143722826
 O1 0.098383 0.888434 0.07599  -0.610143722826
 O1 0.598374 0.888419 0.07596  -0.610143722826
 O1 0.441452 0.880334 0.03626  -0.610143722826
 O1 0.941469 0.880313 0.03632  -0.610143722826
 O1 0.411659 0.879333 0.74833  -0.610143722826
 O1 0.911661 0.879305 0.74843  -0.610143722826
 O1 0.013385 0.913878 0.8513  -0.610143722826
 O1 0.513374 0.913895 0.85134  -0.610143722826
 O1 0.348385 0.924384 0.11121  -0.610143722826
 O1 0.848389 0.924351 0.11124  -0.610143722826
 O1 0.30839 0.03673 0.88002  -0.610143722826
 O1 0.808383 0.036713 0.88005  -0.610143722826
 O1 0.338011 0.749209 0.87846  -0.610143722826
 O1 0.838001 0.749199 0.87853  -0.610143722826
 O1 0.236501 0.851429 0.91356  -0.610143722826
 O1 0.736494 0.851408 0.91365  -0.610143722826
 O1 0.40162 0.111627 0.92411  -0.610143722826
 O1 0.901613 0.111602 0.9240  -0.610143722826
