#======================================================================

# CRYSTAL DATA

#----------------------------------------------------------------------

data_VESTA_phase_1


_pd_phase_name                         MOF
_cell_length_a                         13.40000
_cell_length_b                         13.40100
_cell_length_c                         13.40100
_cell_angle_alpha                      59.97700
_cell_angle_beta                       59.99500
_cell_angle_gamma                      59.99500
_symmetry_space_group_name_H-M         "P 1"
_symmetry_Int_Tables_number            1

loop_
_symmetry_equiv_pos_as_xyz
   "x, y, z"

loop_
   _atom_site_label
   _atom_site_fract_x
   _atom_site_fract_y
   _atom_site_fract_z
 _atom_site_charge
 Cd1 0.499975 0.500002 0.50000  0.632063333333
 Cd1 0.999985 1.9e-05 0.  0.632063333333
 Cd1 0.999984 0.500001 1.6e-0  0.632063333333
 Cd1 0.999988 0.500002 0.50000  0.632063333333
 Cd1 0.124969 0.624928 0.62492  0.632063333333
 Cd1 0.874983 0.375076 0.37507  0.632063333333
 H1 0.508606 0.346604 0.79840  0.116416666667
 H1 0.846344 0.0 0.34666  0.116416666667
 H1 0.298203 0.346724 0.  0.116416666667
 H1 0.84627 0.798686 0.34642  0.116416666667
 H1 0.508602 0.798411 0.34659  0.116416666667
 H1 0.846267 0.346431 0.79867  0.116416666667
 H1 0.298193 0.0 0.34671  0.116416666667
 H1 0.846334 0.346672 0.  0.116416666667
 H1 0.508717 0.346569 0.34657  0.116416666667
 H1 0.846663 0.798176 0.  0.116416666667
 H1 0.298478 0.346463 0.34647  0.116416666667
 H1 0.846665 0.0 0.79816  0.116416666667
 H1 0.153287 0.991415 0.20183  0.116416666667
 H1 0.491234 0.653435 0.65342  0.116416666667
 H1 0.15329 0.201827 0.99141  0.116416666667
 H1 0.701474 0.653541 0.65352  0.116416666667
 H1 0.701757 0.991287 0.65328  0.116416666667
 H1 0.153682 0.653575 0.20132  0.116416666667
 H1 0.491349 0.201594 0.65340  0.116416666667
 H1 0.153615 0.653335 0.99115  0.116416666667
 H1 0.153605 0.991152 0.65333  0.116416666667
 H1 0.701747 0.653279 0.99128  0.116416666667
 H1 0.153678 0.201319 0.6535  0.116416666667
 H1 0.491344 0.653399 0.201  0.116416666667
 C1 0.412228 0.389479 0.8088  -0.0526583333333
 C1 0.889312 0.912422 0.38949  -0.0526583333333
 C1 0.308762 0.389551 0.91230  -0.0526583333333
 C1 0.889264 0.809055 0.38940  -0.0526583333333
 C1 0.412224 0.808885 0.38948  -0.0526583333333
 C1 0.889273 0.389396 0.80905  -0.0526583333333
 C1 0.308756 0.912309 0.38954  -0.0526583333333
 C1 0.889303 0.3895 0.9124  -0.0526583333333
 C1 0.412312 0.389472 0.38946  -0.0526583333333
 C1 0.889523 0.808728 0.91218  -0.0526583333333
 C1 0.308916 0.389425 0.38942  -0.0526583333333
 C1 0.889524 0.912194 0.80871  -0.0526583333333
 C1 0.110428 0.08781 0.19128  -0.0526583333333
 C1 0.587639 0.610532 0.61053  -0.0526583333333
 C1 0.110429 0.191276 0.08781  -0.0526583333333
 C1 0.691035 0.610579 0.61057  -0.0526583333333
 C1 0.691194 0.087696 0.61045  -0.0526583333333
 C1 0.110677 0.610609 0.19095  -0.0526583333333
 C1 0.587727 0.19112 0.61051  -0.0526583333333
 C1 0.110647 0.610505 0.08758  -0.0526583333333
 C1 0.110638 0.087582 0.61050  -0.0526583333333
 C1 0.691188 0.610452 0.08769  -0.0526583333333
 C1 0.110685 0.19095 0.61059  -0.0526583333333
 C1 0.587723 0.610524 0.19112  -0.0526583333333
 N1 0.374258 0.457646 0.71032  -0.2138725
 N1 0.957625 0.874289 0.45774  -0.2138725
 N1 0.21027 0.457714 0.8742  -0.2138725
 N1 0.957582 0.710426 0.45758  -0.2138725
 N1 0.374258 0.710325 0.45763  -0.2138725
 N1 0.957578 0.457592 0.71042  -0.2138725
 N1 0.210267 0.87425 0.45771  -0.2138725
 N1 0.957621 0.457748 0.87429  -0.2138725
 N1 0.37424 0.457725 0.45773  -0.2138725
 N1 0.957742 0.710218 0.87420  -0.2138725
 N1 0.21035 0.457657 0.45766  -0.2138725
 N1 0.957743 0.874204 0.71021  -0.2138725
 N1 0.042208 0.1258 0.28978  -0.2138725
 N1 0.625712 0.542278 0.54226  -0.2138725
 N1 0.04221 0.289786 0.12579  -0.2138725
 N1 0.789601 0.542347 0.54233  -0.2138725
 N1 0.789684 0.125755 0.54228  -0.2138725
 N1 0.042374 0.542411 0.28957  -0.2138725
 N1 0.625692 0.28968 0.54236  -0.2138725
 N1 0.042331 0.542255 0.1257  -0.2138725
 N1 0.042327 0.125715 0.54225  -0.2138725
 N1 0.78968 0.542291 0.12575  -0.2138725
 N1 0.042369 0.289579 0.54241  -0.2138725
 N1 0.625693 0.542358 0.28967  -0.2138725
 N2 0.251525 0.498353 0.75150  -0.0158033333333
 N2 0.99839 0.751548 0.49837  -0.0158033333333
 N2 0.251526 0.751507 0.49836  -0.0158033333333
 N2 0.998396 0.498366 0.7515  -0.0158033333333
 N2 0.251512 0.498445 0.49842  -0.0158033333333
 N2 0.998408 0.751461 0.75146  -0.0158033333333
 N2 0.001543 0.248542 0.24853  -0.0158033333333
 N2 0.74844 0.501558 0.50157  -0.0158033333333
 N2 0.748425 0.248498 0.50163  -0.0158033333333
 N2 0.001556 0.501636 0.24845  -0.0158033333333
 N2 0.001563 0.248456 0.50162  -0.0158033333333
 N2 0.748425 0.501651 0.24849  -0.0158033333333
