#======================================================================

# CRYSTAL DATA

#----------------------------------------------------------------------

data_VESTA_phase_1


_pd_phase_name                         MOF
_cell_length_a                         11.67100
_cell_length_b                         12.27900
_cell_length_c                         14.17900
_cell_angle_alpha                      90.00200
_cell_angle_beta                       127.99700
_cell_angle_gamma                      89.98300
_symmetry_space_group_name_H-M         "P 1"
_symmetry_Int_Tables_number            1

loop_
_symmetry_equiv_pos_as_xyz
   "x, y, z"

loop_
   _atom_site_label
   _atom_site_fract_x
   _atom_site_fract_y
   _atom_site_fract_z
 _atom_site_charge
 Cd1 0.999986 0.999946 3.3e-0  0.988381777778
 Cd1 0.499966 0.499945 2.7e-0  0.988381777778
 H1 0.844749 0.046499 0.42843  0.104622492063
 H1 0.591735 0.020605 0.88297  0.104622492063
 H1 0.545145 0.830158 0.11326  0.104622492063
 H1 0.750639 0.078489 0.53410  0.104622492063
 H1 0.775424 0.068727 0.72222  0.104622492063
 H1 0.182961 0.927071 0.90725  0.104622492063
 H1 0.17904 0.932274 0.73250  0.104622492063
 H1 0.655163 0.546407 0.57165  0.104622492063
 H1 0.908071 0.520624 0.11703  0.104622492063
 H1 0.954952 0.330179 0.88687  0.104622492063
 H1 0.74925 0.578394 0.4659  0.104622492063
 H1 0.724485 0.568629 0.27785  0.104622492063
 H1 0.317093 0.427044 0.09285  0.104622492063
 H1 0.320998 0.432247 0.26759  0.104622492063
 H1 0.155175 0.953427 0.57163  0.104622492063
 H1 0.408195 0.979291 0.11710  0.104622492063
 H1 0.454785 0.169738 0.88681  0.104622492063
 H1 0.249284 0.921427 0.46596  0.104622492063
 H1 0.224501 0.931179 0.27784  0.104622492063
 H1 0.816966 0.07284 0.09280  0.104622492063
 H1 0.820886 0.06765 0.26755  0.104622492063
 H1 0.344762 0.453533 0.42840  0.104622492063
 H1 0.091848 0.479274 0.88303  0.104622492063
 H1 0.0 0.669719 0.11319  0.104622492063
 H1 0.250682 0.421528 0.53409  0.104622492063
 H1 0.275455 0.431272 0.72221  0.104622492063
 H1 0.682834 0.572878 0.90720  0.104622492063
 H1 0.678918 0.5677 0.73246  0.104622492063
 C1 0.551358 0.01065 0.93435  -0.169405222222
 C2 0.675682 0.724233 0.04644  0.440086777778
 C2 0.744048 0.844644 0.95589  0.440086777778
 C1 0.525808 0.904504 0.06326  -0.169405222222
 C1 0.848614 0.044083 0.61526  -0.169405222222
 C3 0.962663 0.0 0.61525  -0.0627298888889
 C4 0.860851 0.038507 0.71  0.182431777778
 C4 0.088498 0.959726 0.82284  0.182431777778
 C3 0.666317 0.825237 0.9988  -0.0627298888889
 C1 0.085242 0.963032 0.72353  -0.169405222222
 C3 0.579515 0.913253 0.99784  -0.0627298888889
 C1 0.948694 0.014206 0.50597  -0.169405222222
 C1 0.948499 0.510649 0.06568  -0.169405222222
 C2 0.824257 0.224305 0.95360  0.440086777778
 C2 0.755934 0.344667 0.04420  0.440086777778
 C1 0.974224 0.404523 0.93684  -0.169405222222
 C1 0.651304 0.543997 0.38482  -0.169405222222
 C3 0.537277 0.506301 0.38483  -0.0627298888889
 C4 0.639074 0.538432 0.2810  0.182431777778
 C4 0.411527 0.459696 0.17725  0.182431777778
 C3 0.833645 0.325276 0.00121  -0.0627298888889
 C1 0.414777 0.462993 0.27656  -0.169405222222
 C3 0.920393 0.413273 0.002  -0.0627298888889
 C1 0.55122 0.514169 0.49410  -0.169405222222
 C1 0.448575 0.989247 0.06572  -0.169405222222
 C2 0.324252 0.275664 0.95363  0.440086777778
 C2 0.255881 0.155254 0.04417  0.440086777778
 C1 0.474124 0.095392 0.93681  -0.169405222222
 C1 0.151311 0.955834 0.38481  -0.169405222222
 C3 0.037261 0.993575 0.3848  -0.0627298888889
 C4 0.139074 0.961401 0.28107  0.182431777778
 C4 0.911428 0.040185 0.1772  0.182431777778
 C3 0.333614 0.17466 0.00122  -0.0627298888889
 C1 0.914685 0.036891 0.27653  -0.169405222222
 C3 0.420416 0.086643 0.00222  -0.0627298888889
 C1 0.05123 0.985721 0.49409  -0.169405222222
 C1 0.051417 0.48925 0.93437  -0.169405222222
 C2 0.175672 0.775591 0.04646  0.440086777778
 C2 0.243984 0.655228 0.95586  0.440086777778
 C1 0.0 0.595376 0.06321  -0.169405222222
 C1 0.348631 0.45592 0.61524  -0.169405222222
 C3 0.462649 0.493635 0.61522  -0.0627298888889
 C4 0.360859 0.461483 0.71897  0.182431777778
 C4 0.588398 0.54023 0.82280  0.182431777778
 C3 0.166277 0.674622 0.99884  -0.0627298888889
 C1 0.585149 0.536939 0.72349  -0.169405222222
 C3 0.079528 0.586625 0.99786  -0.0627298888889
 C1 0.448705 0.485771 0.50595  -0.169405222222
 N1 0.979139 0.997049 0.82208  -0.340043222222
 N2 0.807012 0.868494 0.91803  -0.548163222222
 N2 0.679968 0.639498 0.08858  -0.548163222222
 N1 0.520819 0.497003 0.1780  -0.340043222222
 N2 0.692964 0.368472 0.08208  -0.548163222222
 N2 0.819904 0.139558 0.91145  -0.548163222222
 N1 0.020786 0.002857 0.17798  -0.340043222222
 N2 0.192913 0.131406 0.08203  -0.548163222222
 N2 0.319967 0.3604 0.91149  -0.548163222222
 N1 0.479112 0.502913 0.82205  -0.340043222222
 N2 0.306955 0.631425 0.91798  -0.548163222222
 N2 0.180024 0.860334 0.08862  -0.548163222222
