#======================================================================

# CRYSTAL DATA

#----------------------------------------------------------------------

data_VESTA_phase_1


_pd_phase_name                         MOF
_cell_length_a                         12.91000
_cell_length_b                         18.10000
_cell_length_c                         26.52300
_cell_angle_alpha                      90.00100
_cell_angle_beta                       89.99400
_cell_angle_gamma                      90.06300
_symmetry_space_group_name_H-M         "P 1"
_symmetry_Int_Tables_number            1

loop_
_symmetry_equiv_pos_as_xyz
   "x, y, z"

loop_
   _atom_site_label
   _atom_site_fract_x
   _atom_site_fract_y
   _atom_site_fract_z
 _atom_site_charge
 Zn1 3.1e-05 0.999987 0.7142  1.0193108
 Zn1 2.5e-05 0.499983 0.7142  1.0193108
 Zn1 0.501068 0.999934 0.71431  1.0193108
 Zn1 0.501091 0.499934 0.71431  1.0193108
 Zn1 0.249651 0.999908 0.78568  1.0193108
 Zn1 0.249652 0.499905 0.78567  1.0193108
 Zn1 0.750669 0.000114 0.78577  1.0193108
 Zn1 0.750668 0.50011 0.78578  1.0193108
 Zn1 1.1e-05 0.99999 0.28578  1.0193108
 Zn1 0.999974 0.500003 0.28578  1.0193108
 Zn1 0.501028 0.99995 0.28569  1.0193108
 Zn1 0.498822 0.500043 0.28569  1.0193108
 Zn1 0.249612 0.999917 0.21431  1.0193108
 Zn1 0.249326 0.49987 0.21423  1.0193108
 Zn1 0.750647 0.000121 0.21426  1.0193108
 Zn1 0.750344 0.500074 0.21433  1.0193108
 H1 0.385848 0.420082 0.63087  0.1092758
 H1 0.385805 0.920102 0.63081  0.1092758
 H1 0.884037 0.421057 0.6307  0.1092758
 H1 0.884036 0.921056 0.6307  0.1092758
 H1 0.37837 0.417385 0.53795  0.1092758
 H1 0.378426 0.917469 0.53789  0.1092758
 H1 0.876936 0.418399 0.53785  0.1092758
 H1 0.876932 0.918404 0.53785  0.1092758
 H1 0.134441 0.079004 0.8692  0.1092758
 H1 0.134432 0.57899 0.86923  0.1092758
 H1 0.634393 0.078967 0.86926  0.1092758
 H1 0.634402 0.578966 0.86927  0.1092758
 H1 0.127398 0.081714 0.96216  0.1092758
 H1 0.127383 0.581704 0.96214  0.1092758
 H1 0.627114 0.081533 0.96218  0.1092758
 H1 0.627106 0.581528 0.96219  0.1092758
 H1 0.365652 0.420964 0.86921  0.1092758
 H1 0.365619 0.920947 0.86923  0.1092758
 H1 0.865761 0.421032 0.86932  0.1092758
 H1 0.865749 0.921031 0.86930  0.1092758
 H1 0.372826 0.418373 0.96213  0.1092758
 H1 0.372796 0.91835 0.96215  0.1092758
 H1 0.872681 0.418302 0.96223  0.1092758
 H1 0.872688 0.918303 0.9622  0.1092758
 H1 0.115976 0.078943 0.63076  0.1092758
 H1 0.115967 0.578938 0.63075  0.1092758
 H1 0.615154 0.079865 0.63068  0.1092758
 H1 0.615184 0.579841 0.63063  0.1092758
 H1 0.123069 0.081601 0.53784  0.1092758
 H1 0.123062 0.581591 0.53784  0.1092758
 H1 0.62189 0.082691 0.5377  0.1092758
 H1 0.62182 0.582604 0.53771  0.1092758
 H1 0.115969 0.078942 0.36924  0.1092758
 H1 0.11595 0.578929 0.36924  0.1092758
 H1 0.61493 0.079933 0.3692  0.1092758
 H1 0.614096 0.579877 0.36914  0.1092758
 H1 0.123065 0.0816 0.4621  0.1092758
 H1 0.123057 0.581586 0.46215  0.1092758
 H1 0.621785 0.082738 0.46219  0.1092758
 H1 0.621561 0.582568 0.46206  0.1092758
 H1 0.365554 0.420987 0.13073  0.1092758
 H1 0.365625 0.920989 0.1307  0.1092758
 H1 0.865582 0.421005 0.13077  0.1092758
 H1 0.865674 0.921008 0.13073  0.1092758
 H1 0.372848 0.418421 0.03781  0.1092758
 H1 0.372844 0.918399 0.03782  0.1092758
 H1 0.872607 0.418273 0.03786  0.1092758
 H1 0.872633 0.918267 0.03782  0.1092758
 H1 0.134342 0.078972 0.13072  0.1092758
 H1 0.134246 0.578958 0.13068  0.1092758
 H1 0.634416 0.079015 0.13078  0.1092758
 H1 0.634319 0.578999 0.13079  0.1092758
 H1 0.127338 0.081677 0.0378  0.1092758
 H1 0.127317 0.581681 0.03777  0.1092758
 H1 0.627162 0.081579 0.03786  0.1092758
 H1 0.627129 0.581577 0.03787  0.1092758
 H1 0.384746 0.420128 0.36937  0.1092758
 H1 0.385593 0.920161 0.3692  0.1092758
 H1 0.884019 0.421049 0.36925  0.1092758
 H1 0.884029 0.921055 0.36925  0.1092758
 H1 0.378094 0.417362 0.46229  0.1092758
 H1 0.378333 0.917506 0.46215  0.1092758
 H1 0.876931 0.418395 0.46217  0.1092758
 H1 0.876929 0.918403 0.46217  0.1092758
 C1 0.377182 0.24698 0.79482  0.1427458
 C1 0.377177 0.746976 0.79482  0.1427458
 C1 0.87601 0.247055 0.79487  0.1427458
 C1 0.876012 0.747052 0.79487  0.1427458
 C1 0.379845 0.170338 0.79486  0.1427458
 C1 0.379844 0.670334 0.79486  0.1427458
 C1 0.878885 0.170427 0.79490  0.1427458
 C1 0.878879 0.670423 0.79490  0.1427458
 C2 0.435731 0.455755 0.60843  0.1988058
 C2 0.435708 0.955792 0.608  0.1988058
 C2 0.934592 0.456322 0.60838  0.1988058
 C2 0.93459 0.956322 0.60838  0.1988058
 C3 0.43311 0.454586 0.55609  -0.1979692
 C3 0.433141 0.95466 0.55606  -0.1979692
 C3 0.932196 0.455156 0.55604  -0.1979692
 C3 0.932193 0.955159 0.55604  -0.1979692
 C1 0.127152 0.252932 0.70520  0.1427458
 C1 0.127148 0.752929 0.70520  0.1427458
 C1 0.626585 0.252973 0.70520  0.1427458
 C1 0.626577 0.752969 0.70520  0.1427458
 C1 0.128418 0.329579 0.70514  0.1427458
 C1 0.128415 0.829576 0.70514  0.1427458
 C1 0.629326 0.329608 0.70516  0.1427458
 C1 0.62932 0.829605 0.70516  0.1427458
 C2 0.184849 0.043705 0.89163  0.1988058
 C2 0.184846 0.543699 0.89161  0.1988058
 C2 0.684787 0.043678 0.89165  0.1988058
 C2 0.684792 0.543675 0.89167  0.1988058
 C3 0.182474 0.044903 0.94397  -0.1979692
 C3 0.182469 0.544899 0.94395  -0.1979692
 C3 0.68229 0.044795 0.94399  -0.1979692
 C3 0.682284 0.54479 0.94401  -0.1979692
 C1 0.373601 0.246985 0.70519  0.1427458
 C1 0.373596 0.746982 0.70519  0.1427458
 C1 0.87291 0.24706 0.70521  0.1427458
 C1 0.872913 0.747055 0.70521  0.1427458
 C1 0.370975 0.170338 0.70515  0.1427458
 C1 0.370975 0.670334 0.70515  0.1427458
 C1 0.871619 0.170413 0.70514  0.1427458
 C1 0.871613 0.670408 0.70514  0.1427458
 C2 0.315268 0.456273 0.89160  0.1988058
 C2 0.315242 0.95626 0.89162  0.1988058
 C2 0.815288 0.456299 0.891  0.1988058
 C2 0.81528 0.956296 0.89167  0.1988058
 C3 0.317706 0.455143 0.94394  -0.1979692
 C3 0.317681 0.955126 0.94396  -0.1979692
 C3 0.817591 0.455087 0.94403  -0.1979692
 C3 0.817593 0.955086 0.94401  -0.1979692
 C1 0.124055 0.252936 0.79486  0.1427458
 C1 0.124051 0.752932 0.79486  0.1427458
 C1 0.622995 0.252995 0.79486  0.1427458
 C1 0.622987 0.752991 0.79486  0.1427458
 C1 0.121152 0.329565 0.79489  0.1427458
 C1 0.121149 0.82956 0.79489  0.1427458
 C1 0.620446 0.32963 0.79489  0.1427458
 C1 0.62044 0.829627 0.79489  0.1427458
 C2 0.065414 0.043681 0.60837  0.1988058
 C2 0.065406 0.543674 0.60837  0.1988058
 C2 0.565092 0.044211 0.60833  0.1988058
 C2 0.565105 0.544167 0.60830  0.1988058
 C3 0.067807 0.044847 0.55603  -0.1979692
 C3 0.067801 0.544837 0.55603  -0.1979692
 C3 0.567296 0.045462 0.55599  -0.1979692
 C3 0.567254 0.545383 0.55596  -0.1979692
 C1 0.124018 0.252931 0.20514  0.1427458
 C1 0.123998 0.752937 0.2051  0.1427458
 C1 0.622879 0.253043 0.20516  0.1427458
 C1 0.622886 0.752962 0.20518  0.1427458
 C1 0.12112 0.329559 0.20511  0.1427458
 C1 0.121123 0.829566 0.20511  0.1427458
 C1 0.620171 0.329677 0.20513  0.1427458
 C1 0.620379 0.829605 0.20513  0.1427458
 C2 0.065407 0.043681 0.39163  0.1988058
 C2 0.065396 0.543664 0.39163  0.1988058
 C2 0.564914 0.044263 0.39166  0.1988058
 C2 0.564202 0.544207 0.39158  0.1988058
 C3 0.067802 0.044846 0.44397  -0.1979692
 C3 0.067795 0.54483 0.44397  -0.1979692
 C3 0.567182 0.045502 0.44399  -0.1979692
 C3 0.566816 0.545373 0.44392  -0.1979692
 C1 0.373496 0.246966 0.29480  0.1427458
 C1 0.373477 0.747039 0.29481  0.1427458
 C1 0.872851 0.247062 0.29481  0.1427458
 C1 0.872865 0.747052 0.29480  0.1427458
 C1 0.370897 0.170323 0.29485  0.1427458
 C1 0.370686 0.6704 0.29485  0.1427458
 C1 0.871591 0.170415 0.29487  0.1427458
 C1 0.871584 0.670405 0.29487  0.1427458
 C2 0.315176 0.456286 0.10834  0.1988058
 C2 0.315231 0.956286 0.10836  0.1988058
 C2 0.815155 0.456287 0.10839  0.1988058
 C2 0.815234 0.956287 0.1083  0.1988058
 C3 0.317681 0.455169 0.05600  -0.1979692
 C3 0.317695 0.955154 0.05601  -0.1979692
 C3 0.817517 0.455074 0.05605  -0.1979692
 C3 0.817557 0.955071 0.05602  -0.1979692
 C1 0.127115 0.252929 0.29480  0.1427458
 C1 0.127097 0.752931 0.29479  0.1427458
 C1 0.626456 0.25303 0.29480  0.1427458
 C1 0.626478 0.75295 0.29482  0.1427458
 C1 0.128386 0.329576 0.29487  0.1427458
 C1 0.128387 0.829577 0.29486  0.1427458
 C1 0.629038 0.329674 0.29485  0.1427458
 C1 0.62926 0.829589 0.29486  0.1427458
 C2 0.184785 0.04369 0.10835  0.1988058
 C2 0.184706 0.543682 0.10831  0.1988058
 C2 0.684792 0.043709 0.10838  0.1988058
 C2 0.684712 0.543696 0.10840  0.1988058
 C3 0.182432 0.044887 0.05601  -0.1979692
 C3 0.182399 0.54489 0.05597  -0.1979692
 C3 0.682307 0.044822 0.05604  -0.1979692
 C3 0.68226 0.544817 0.05606  -0.1979692
 C1 0.377076 0.24695 0.2051  0.1427458
 C1 0.377072 0.747025 0.20517  0.1427458
 C1 0.875949 0.247061 0.20515  0.1427458
 C1 0.875964 0.747046 0.20514  0.1427458
 C1 0.379766 0.170316 0.20513  0.1427458
 C1 0.379569 0.670382 0.20513  0.1427458
 C1 0.878859 0.170433 0.2051  0.1427458
 C1 0.87885 0.670417 0.20511  0.1427458
 C2 0.434821 0.4558 0.39170  0.1988058
 C2 0.435537 0.95584 0.39163  0.1988058
 C2 0.934582 0.456312 0.39164  0.1988058
 C2 0.934584 0.956321 0.39164  0.1988058
 C3 0.432665 0.454582 0.4440  -0.1979692
 C3 0.433034 0.954694 0.44397  -0.1979692
 C3 0.932191 0.455149 0.44398  -0.1979692
 C3 0.932188 0.955158 0.44398  -0.1979692
 C4 3e-06 9e-06 0.52801  -0.1286042
 C4 0.999998 0.499996 0.52801  -0.1286042
 C4 0.500151 7.9e-05 0.52801  -0.1286042
 C4 0.500087 0.499969 0.52801  -0.1286042
 C4 0.250097 2.9e-05 0.9719  -0.1286042
 C4 0.250107 0.500038 0.97196  -0.1286042
 C4 0.749904 0.999928 0.9720  -0.1286042
 C4 0.749891 0.499922 0.97204  -0.1286042
 C4 4e-06 6e-06 0.47199  -0.1286042
 C4 0.999999 0.499989 0.47199  -0.1286042
 C4 0.500088 0.000102 0.47  -0.1286042
 C4 0.499832 0.499991 0.47  -0.1286042
 C4 0.250088 3.1e-05 0.02799  -0.1286042
 C4 0.250069 0.500031 0.02797  -0.1286042
 C4 0.749916 0.999945 0.02802  -0.1286042
 C4 0.749886 0.499941 0.02804  -0.1286042
 C5 0.375279 0.370951 0.75000  0.7384708
 C5 0.37527 0.870948 0.75000  0.7384708
 C5 0.874192 0.370958 0.75002  0.7384708
 C5 0.8742 0.870953 0.75002  0.7384708
 C4 0.375294 0.288377 0.75001  -0.1286042
 C4 0.375287 0.788373 0.75001  -0.1286042
 C4 0.874356 0.288421 0.75004  -0.1286042
 C4 0.874351 0.788416 0.75004  -0.1286042
 C6 0.375368 0.128755 0.75000  0.2064108
 C6 0.375372 0.628751 0.75000  0.2064108
 C6 0.875527 0.128916 0.75002  0.2064108
 C6 0.875522 0.628911 0.75002  0.2064108
 C5 0.125969 0.129029 0.75000  0.7384708
 C5 0.125962 0.629026 0.74999  0.7384708
 C5 0.62503 0.129084 0.75003  0.7384708
 C5 0.625025 0.62908 0.75003  0.7384708
 C4 0.125738 0.211569 0.75003  -0.1286042
 C4 0.125732 0.711566 0.75003  -0.1286042
 C4 0.624952 0.21162 0.75004  -0.1286042
 C4 0.624952 0.711616 0.75004  -0.1286042
 C6 0.124513 0.371084 0.75001  0.2064108
 C6 0.12451 0.87108 0.75001  0.2064108
 C6 0.62521 0.371142 0.75002  0.2064108
 C6 0.625199 0.871138 0.75002  0.2064108
 C5 0.12593 0.129028 0.25000  0.7384708
 C5 0.125804 0.629031 0.24998  0.7384708
 C5 0.624971 0.129124 0.24998  0.7384708
 C5 0.624717 0.628999 0.25000  0.7384708
 C4 0.125693 0.211568 0.24997  -0.1286042
 C4 0.125651 0.711568 0.24996  -0.1286042
 C4 0.624849 0.211657 0.24997  -0.1286042
 C4 0.624756 0.711576 0.2  -0.1286042
 C6 0.124473 0.371072 0.24999  0.2064108
 C6 0.124485 0.871083 0.24999  0.2064108
 C6 0.624633 0.371257 0.25000  0.2064108
 C6 0.625139 0.871123 0.25000  0.2064108
 C5 0.37497 0.37087 0.24998  0.7384708
 C5 0.375234 0.870988 0.25000  0.7384708
 C5 0.874022 0.370963 0.2500  0.7384708
 C5 0.874142 0.870951 0.25000  0.7384708
 C4 0.375089 0.288337 0.24997  -0.1286042
 C4 0.375185 0.788411 0.24999  -0.1286042
 C4 0.874277 0.288423 0.24998  -0.1286042
 C4 0.874318 0.788415 0.24997  -0.1286042
 C6 0.375269 0.12874 0.24999  0.2064108
 C6 0.374795 0.628867 0.24999  0.2064108
 C6 0.875501 0.12892 0.24999  0.2064108
 C6 0.875484 0.628898 0.24999  0.2064108
 N1 1e-05 4e-06 0.63459  -0.3525992
 N1 2e-06 0.499998 0.63459  -0.3525992
 N1 0.500511 0.999968 0.6345  -0.3525992
 N1 0.50053 0.499957 0.6345  -0.3525992
 N1 0.249993 0.999947 0.86541  -0.3525992
 N1 0.249995 0.49994 0.86540  -0.3525992
 N1 0.750132 4.5e-05 0.86545  -0.3525992
 N1 0.750137 0.50004 0.86547  -0.3525992
 N1 0.999999 6e-06 0.36542  -0.3525992
 N1 0.999986 0.499989 0.36542  -0.3525992
 N1 0.500335 3e-06 0.36543  -0.3525992
 N1 0.499401 0.500012 0.36543  -0.3525992
 N1 0.249953 0.999957 0.1345  -0.3525992
 N1 0.249865 0.499948 0.1345  -0.3525992
 N1 0.75009 4.5e-05 0.13458  -0.3525992
 N1 0.749978 0.500023 0.13461  -0.3525992
 O1 0.417921 0.403327 0.71280  -0.6042692
 O1 0.417903 0.903322 0.71279  -0.6042692
 O1 0.916302 0.403423 0.71272  -0.6042692
 O1 0.916297 0.903419 0.71272  -0.6042692
 O1 0.168281 0.096749 0.7873  -0.6042692
 O1 0.16828 0.596745 0.78730  -0.6042692
 O1 0.667369 0.096647 0.78725  -0.6042692
 O1 0.667364 0.596642 0.78725  -0.6042692
 O1 0.332602 0.403313 0.78718  -0.6042692
 O1 0.332602 0.903311 0.78718  -0.6042692
 O1 0.832036 0.403241 0.78738  -0.6042692
 O1 0.832023 0.903236 0.78737  -0.6042692
 O1 0.083691 0.096571 0.71274  -0.6042692
 O1 0.083683 0.596568 0.71274  -0.6042692
 O1 0.582661 0.096771 0.71272  -0.6042692
 O1 0.582674 0.596767 0.7127  -0.6042692
 O1 0.083679 0.096569 0.28726  -0.6042692
 O1 0.083675 0.596568 0.28728  -0.6042692
 O1 0.582587 0.096791 0.28729  -0.6042692
 O1 0.582069 0.596638 0.28721  -0.6042692
 O1 0.332617 0.403323 0.21276  -0.6042692
 O1 0.332601 0.903337 0.21281  -0.6042692
 O1 0.831716 0.403239 0.21270  -0.6042692
 O1 0.832005 0.90324 0.2126  -0.6042692
 O1 0.168236 0.096752 0.21268  -0.6042692
 O1 0.167956 0.596742 0.21263  -0.6042692
 O1 0.667371 0.096673 0.2127  -0.6042692
 O1 0.667383 0.596652 0.21282  -0.6042692
 O1 0.417318 0.403198 0.28729  -0.6042692
 O1 0.41785 0.903343 0.28721  -0.6042692
 O1 0.916296 0.403422 0.28727  -0.6042692
 O1 0.916301 0.903414 0.28728  -0.6042692
 O2 0.375302 0.054901 0.74999  -0.6302292
 O2 0.375314 0.554897 0.74999  -0.6302292
 O2 0.87563 0.055038 0.75004  -0.6302292
 O2 0.875624 0.555033 0.75004  -0.6302292
 O2 0.124376 0.444961 0.75004  -0.6302292
 O2 0.124373 0.944957 0.75004  -0.6302292
 O2 0.625653 0.445009 0.75000  -0.6302292
 O2 0.625639 0.945006 0.7  -0.6302292
 O2 0.124353 0.444951 0.24996  -0.6302292
 O2 0.124372 0.944959 0.24996  -0.6302292
 O2 0.624669 0.445107 0.25001  -0.6302292
 O2 0.625593 0.944994 0.25002  -0.6302292
 O2 0.375194 0.054889 0.25001  -0.6302292
 O2 0.374326 0.554996 0.25001  -0.6302292
 O2 0.87563 0.05504 0.24996  -0.6302292
 O2 0.875604 0.555023 0.24996  -0.6302292
 F1 0.382234 0.281213 0.84008  -0.1313442
 F1 0.38223 0.781209 0.84008  -0.1313442
 F1 0.880073 0.281214 0.84016  -0.1313442
 F1 0.880068 0.781211 0.84016  -0.1313442
 F1 0.386616 0.134264 0.8395  -0.1313442
 F1 0.386612 0.634261 0.8395  -0.1313442
 F1 0.884465 0.134278 0.83956  -0.1313442
 F1 0.88446 0.634275 0.83956  -0.1313442
 F1 0.133212 0.218757 0.65996  -0.1313442
 F1 0.133208 0.718754 0.65996  -0.1313442
 F1 0.631169 0.218774 0.65993  -0.1313442
 F1 0.631165 0.71877 0.65993  -0.1313442
 F1 0.133412 0.365719 0.66045  -0.1313442
 F1 0.133408 0.865716 0.66045  -0.1313442
 F1 0.635561 0.365712 0.66049  -0.1313442
 F1 0.635556 0.865708 0.66049  -0.1313442
 F1 0.368818 0.281206 0.65993  -0.1313442
 F1 0.368814 0.781202 0.6599  -0.1313442
 F1 0.866775 0.281232 0.65998  -0.1313442
 F1 0.866771 0.781227 0.65998  -0.1313442
 F1 0.364456 0.134263 0.66047  -0.1313442
 F1 0.364453 0.634259 0.66047  -0.1313442
 F1 0.866568 0.134271 0.66046  -0.1313442
 F1 0.866563 0.634266 0.66046  -0.1313442
 F1 0.119913 0.218764 0.84015  -0.1313442
 F1 0.119909 0.718759 0.84015  -0.1313442
 F1 0.617749 0.218768 0.84010  -0.1313442
 F1 0.617745 0.718765 0.84010  -0.1313442
 F1 0.115512 0.365704 0.83956  -0.1313442
 F1 0.115508 0.865699 0.83956  -0.1313442
 F1 0.613393 0.365729 0.83953  -0.1313442
 F1 0.613388 0.865725 0.83953  -0.1313442
 F1 0.119916 0.218767 0.15985  -0.1313442
 F1 0.119908 0.718773 0.15984  -0.1313442
 F1 0.617762 0.218789 0.15991  -0.1313442
 F1 0.617738 0.718754 0.15992  -0.1313442
 F1 0.115517 0.365708 0.16045  -0.1313442
 F1 0.115516 0.865707 0.16044  -0.1313442
 F1 0.613365 0.36574 0.16047  -0.1313442
 F1 0.613394 0.865712 0.16049  -0.1313442
 F1 0.368806 0.281194 0.34006  -0.1313442
 F1 0.368823 0.781228 0.34009  -0.1313442
 F1 0.866773 0.281233 0.34004  -0.1313442
 F1 0.866771 0.781227 0.34004  -0.1313442
 F1 0.364454 0.134262 0.33953  -0.1313442
 F1 0.364416 0.63428 0.33952  -0.1313442
 F1 0.866572 0.13427 0.33955  -0.1313442
 F1 0.866567 0.634266 0.33955  -0.1313442
 F1 0.133212 0.218757 0.34003  -0.1313442
 F1 0.133206 0.718756 0.34003  -0.1313442
 F1 0.631178 0.218799 0.34006  -0.1313442
 F1 0.631154 0.718758 0.34009  -0.1313442
 F1 0.133414 0.36572 0.33955  -0.1313442
 F1 0.133412 0.865716 0.33955  -0.1313442
 F1 0.635525 0.365733 0.33953  -0.1313442
 F1 0.635556 0.865707 0.33952  -0.1313442
 F1 0.382226 0.281202 0.15991  -0.1313442
 F1 0.382242 0.781231 0.15992  -0.1313442
 F1 0.880072 0.281228 0.15986  -0.1313442
 F1 0.880072 0.781213 0.15985  -0.1313442
 F1 0.38662 0.134251 0.16047  -0.1313442
 F1 0.386584 0.634272 0.16049  -0.1313442
 F1 0.884473 0.134287 0.16045  -0.1313442
 F1 0.884466 0.634279 0.16044  -0.1313442
