#======================================================================

# CRYSTAL DATA

#----------------------------------------------------------------------

data_VESTA_phase_1


_pd_phase_name                         MOF
_cell_length_a                         16.15800
_cell_length_b                         18.10400
_cell_length_c                         18.80700
_cell_angle_alpha                      90.00000
_cell_angle_beta                       90.00000
_cell_angle_gamma                      92.61500
_symmetry_space_group_name_H-M         "P 1"
_symmetry_Int_Tables_number            1

loop_
_symmetry_equiv_pos_as_xyz
   "x, y, z"

loop_
   _atom_site_label
   _atom_site_fract_x
   _atom_site_fract_y
   _atom_site_fract_z
 _atom_site_charge
 Zn1 0.654837 0.351879 0.50350  0.916282071429
 Zn1 0.829748 0.377214 0.50379  0.916282071429
 Zn1 0.665167 0.86314 0.00033  0.916282071429
 Zn1 0.840689 0.888553 0.  0.916282071429
 Zn1 0.36395 0.159532 0.  0.916282071429
 Zn1 0.188428 0.134119 2e-0  0.916282071429
 Zn1 0.37428 0.670793 0.5040  0.916282071429
 Zn1 0.199369 0.645458 0.50378  0.916282071429
 H1 0.594877 0.513009 0.6586  0.107960707792
 H1 0.577623 0.609667 0.75118  0.107960707792
 H1 0.641339 0.697893 0.84005  0.107960707792
 H1 0.902243 0.697819 0.88185  0.107960707792
 H1 0.918732 0.598543 0.79187  0.107960707792
 H1 0.856379 0.515386 0.69827  0.107960707792
 H1 0.592327 0.510812 0.34511  0.107960707792
 H1 0.575596 0.605806 0.2511  0.107960707792
 H1 0.639721 0.700333 0.1683  0.107960707792
 H1 0.900525 0.754471 0.17908  0.107960707792
 H1 0.916594 0.662332 0.27625  0.107960707792
 H1 0.853294 0.564333 0.3559  0.107960707792
 H1 0.962972 0.309907 0.58526  0.107960707792
 H1 0.109825 0.310068 0.58705  0.107960707792
 H1 0.240348 0.433551 0.4580  0.107960707792
 H1 0.238853 0.305256 0.56603  0.107960707792
 H1 0.367709 0.244623 0.57648  0.107960707792
 H1 0.521908 0.247659 0.56205  0.107960707792
 H1 0.523328 0.450977 0.4616  0.107960707792
 H1 0.371497 0.459169 0.47391  0.107960707792
 H1 0.110875 0.472784 0.41858  0.107960707792
 H1 0.962465 0.464112 0.42316  0.107960707792
 H1 0.605621 0.0 0.85280  0.107960707792
 H1 0.566962 0.09822 0.76024  0.107960707792
 H1 0.630557 0.18646 0.67132  0.107960707792
 H1 0.891446 0.186535 0.62941  0.107960707792
 H1 0.908069 0.087303 0.71941  0.107960707792
 H1 0.867102 0.0 0.813  0.107960707792
 H1 0.602798 0.0 0.15880  0.107960707792
 H1 0.564944 0.094586 0.2527  0.107960707792
 H1 0.629183 0.189095 0.3355  0.107960707792
 H1 0.890004 0.243113 0.32463  0.107960707792
 H1 0.905948 0.150939 0.2274  0.107960707792
 H1 0.842532 0.05296 0.14784  0.107960707792
 H1 0.973954 0.821247 0.92601  0.107960707792
 H1 0.12081 0.821397 0.9242  0.107960707792
 H1 0.250657 0.94477 0.04576  0.107960707792
 H1 0.249833 0.816565 0.9453  0.107960707792
 H1 0.378688 0.755879 0.93504  0.107960707792
 H1 0.532882 0.758923 0.94953  0.107960707792
 H1 0.533643 0.962242 0.04216  0.107960707792
 H1 0.381819 0.970441 0.02984  0.107960707792
 H1 0.121165 0.983987 0.08521  0.107960707792
 H1 0.972758 0.975341 0.08055  0.107960707792
 H1 0.423496 0.998446 0.15477  0.107960707792
 H1 0.462156 0.924455 0.24733  0.107960707792
 H1 0.39856 0.836212 0.33624  0.107960707792
 H1 0.13767 0.836132 0.37815  0.107960707792
 H1 0.121047 0.935364 0.28815  0.107960707792
 H1 0.162014 0.995911 0.19447  0.107960707792
 H1 0.426317 0.000515 0.84876  0.107960707792
 H1 0.464171 0.928093 0.75481  0.107960707792
 H1 0.399933 0.833578 0.67203  0.107960707792
 H1 0.139115 0.779552 0.68294  0.107960707792
 H1 0.12317 0.871727 0.78009  0.107960707792
 H1 0.186585 0.969709 0.85973  0.107960707792
 H1 0.055163 0.20142 0.08156  0.107960707792
 H1 0.908306 0.20127 0.08329  0.107960707792
 H1 0.77846 0.077902 0.96180  0.107960707792
 H1 0.779284 0.206106 0.06222  0.107960707792
 H1 0.650429 0.266793 0.07252  0.107960707792
 H1 0.496235 0.263749 0.05803  0.107960707792
 H1 0.495474 0.06043 0.96540  0.107960707792
 H1 0.647297 0.05223 0.97772  0.107960707792
 H1 0.907952 0.038687 0.9223  0.107960707792
 H1 0.05636 0.047334 0.92701  0.107960707792
 H1 0.43424 0.509668 0.34888  0.107960707792
 H1 0.451495 0.41301 0.25638  0.107960707792
 H1 0.387778 0.324781 0.16751  0.107960707792
 H1 0.126873 0.324849 0.12572  0.107960707792
 H1 0.110384 0.424126 0.21570  0.107960707792
 H1 0.172737 0.507286 0.309  0.107960707792
 H1 0.436789 0.511861 0.6624  0.107960707792
 H1 0.45352 0.416866 0.75640  0.107960707792
 H1 0.389396 0.322337 0.83924  0.107960707792
 H1 0.128593 0.268198 0.82848  0.107960707792
 H1 0.112524 0.360337 0.73131  0.107960707792
 H1 0.175823 0.458338 0.65163  0.107960707792
 H1 0.066145 0.712763 0.42230  0.107960707792
 H1 0.919292 0.712602 0.42051  0.107960707792
 H1 0.788769 0.589121 0.54952  0.107960707792
 H1 0.790264 0.717414 0.44153  0.107960707792
 H1 0.661408 0.778048 0.43108  0.107960707792
 H1 0.507208 0.775013 0.44551  0.107960707792
 H1 0.505789 0.571694 0.54589  0.107960707792
 H1 0.65762 0.563501 0.53365  0.107960707792
 H1 0.918242 0.549888 0.58899  0.107960707792
 H1 0.066652 0.55856 0.5844  0.107960707792
 C1 0.736822 0.456761 0.61188  0.675714571429
 C2 0.72744 0.510182 0.67205  0.00107207142857
 C3 0.647864 0.536078 0.68827  -0.123965706349
 C3 0.638682 0.589232 0.73954  -0.123965706349
 C2 0.708365 0.619038 0.777  0.00107207142857
 C3 0.701516 0.675505 0.82914  -0.123965706349
 C2 0.770387 0.703942 0.86540  0.00107207142857
 C3 0.849246 0.675276 0.85191  -0.123965706349
 C3 0.858025 0.620327 0.80231  -0.123965706349
 C2 0.788569 0.591197 0.76337  0.00107207142857
 C3 0.79589 0.536742 0.7100  -0.123965706349
 C1 0.761974 0.765696 0.91781  0.675714571429
 C1 0.732397 0.474146 0.41208  0.675714571429
 C2 0.724353 0.532113 0.3557  0.00107207142857
 C3 0.645339 0.544311 0.32594  -0.123965706349
 C3 0.636447 0.596763 0.27392  -0.123965706349
 C2 0.706168 0.639564 0.24830  0.00107207142857
 C3 0.699671 0.691881 0.1928  -0.123965706349
 C2 0.768699 0.732112 0.16811  0.00107207142857
 C3 0.847386 0.721834 0.19940  -0.123965706349
 C3 0.855807 0.671058 0.25314  -0.123965706349
 C2 0.7862 0.628045 0.27876  0.00107207142857
 C3 0.793027 0.57384 0.33244  -0.123965706349
 C1 0.76078 0.785297 0.10736  0.675714571429
 C4 0.0 0.34456 0.54908  0.174958321429
 C3 0.078862 0.344928 0.5491  -0.123965706349
 C2 0.124318 0.390039 0.50054  0.00107207142857
 C3 0.214194 0.392481 0.49510  -0.123965706349
 C3 0.264975 0.348028 0.53054  -0.123965706349
 C2 0.354847 0.35051 0.524  0.00107207142857
 C3 0.399725 0.291478 0.55035  -0.123965706349
 C4 0.485136 0.292358 0.54244  0.174958321429
 C4 0.485807 0.406567 0.48646  0.174958321429
 C3 0.40073 0.409838 0.49267  -0.123965706349
 C3 0.078594 0.434672 0.45513  -0.123965706349
 C4 0.999939 0.430872 0.45788  0.174958321429
 C1 0.747625 0.968101 0.89954  0.675714571429
 C2 0.73818 0.0 0.83935  0.00107207142857
 C3 0.637311 0.02473 0.82316  -0.123965706349
 C3 0.628049 0.077837 0.77186  -0.123965706349
 C2 0.697687 0.107668 0.73357  0.00107207142857
 C3 0.690759 0.164114 0.68221  -0.123965706349
 C2 0.759591 0.192589 0.64593  0.00107207142857
 C3 0.838483 0.163972 0.65937  -0.123965706349
 C3 0.847338 0.109049 0.70899  -0.123965706349
 C2 0.77793 0.079899 0.74798  0.00107207142857
 C3 0.785333 0.025482 0.80130  -0.123965706349
 C1 0.751114 0.254346 0.59353  0.675714571429
 C1 0.742812 0.985429 0.09173  0.675714571429
 C2 0.713572 0.020805 0.14808  0.00107207142857
 C3 0.63459 0.033048 0.17794  -0.123965706349
 C3 0.62577 0.085509 0.22996  -0.123965706349
 C2 0.695533 0.12828 0.25554  0.00107207142857
 C3 0.689109 0.180615 0.31094  -0.123965706349
 C2 0.758176 0.220823 0.33568  0.00107207142857
 C3 0.836832 0.210497 0.30435  -0.123965706349
 C3 0.845184 0.159699 0.25062  -0.123965706349
 C2 0.775534 0.116716 0.22504  0.00107207142857
 C3 0.782285 0.062501 0.17136  -0.123965706349
 C1 0.750318 0.27402 0.39642  0.675714571429
 C4 0.0 0.855894 0.9622  0.174958321429
 C3 0.089828 0.856251 0.96219  -0.123965706349
 C2 0.134645 0.901268 0.00322  0.00107207142857
 C3 0.22452 0.903705 0.00870  -0.123965706349
 C3 0.275939 0.859337 0.98085  -0.123965706349
 C2 0.365809 0.861815 0.98723  0.00107207142857
 C3 0.410693 0.802755 0.96114  -0.123965706349
 C4 0.496099 0.803636 0.96909  0.174958321429
 C4 0.49613 0.917812 0.01740  0.174958321429
 C3 0.411057 0.921087 0.01115  -0.123965706349
 C3 0.088902 0.945892 0.04863  -0.123965706349
 C4 0.0 0.942105 0.04584  0.174958321429
 C1 0.281492 0.054572 0.10803  0.675714571429
 C2 0.290937 0.00118 0.16821  0.00107207142857
 C3 0.391806 0.997945 0.18440  -0.123965706349
 C3 0.401069 0.944836 0.23570  -0.123965706349
 C2 0.33143 0.915003 0.27  0.00107207142857
 C3 0.338358 0.858557 0.32535  -0.123965706349
 C2 0.269526 0.830082 0.3616  0.00107207142857
 C3 0.190633 0.858697 0.34819  -0.123965706349
 C3 0.181778 0.91362 0.29857  -0.123965706349
 C2 0.251187 0.942773 0.25958  0.00107207142857
 C3 0.243784 0.99719 0.20627  -0.123965706349
 C1 0.278003 0.768325 0.41403  0.675714571429
 C1 0.286305 0.037243 0.91583  0.675714571429
 C2 0.315544 0.0 0.85948  0.00107207142857
 C3 0.394525 0.989629 0.82962  -0.123965706349
 C3 0.403346 0.937167 0.77760  -0.123965706349
 C2 0.333584 0.894393 0.75202  0.00107207142857
 C3 0.340007 0.842058 0.69662  -0.123965706349
 C2 0.270941 0.801848 0.67189  0.00107207142857
 C3 0.192286 0.81217 0.70322  -0.123965706349
 C3 0.183934 0.862969 0.75695  -0.123965706349
 C2 0.253583 0.905957 0.78252  0.00107207142857
 C3 0.246831 0.960171 0.83621  -0.123965706349
 C1 0.278798 0.748651 0.61114  0.675714571429
 C4 0.017745 0.166775 0.04536  0.174958321429
 C3 0.939288 0.166418 0.04537  -0.123965706349
 C2 0.894472 0.121403 0.  0.00107207142857
 C3 0.804597 0.118966 0.99887  -0.123965706349
 C3 0.753178 0.163334 0.02671  -0.123965706349
 C2 0.663308 0.160856 0.0203  0.00107207142857
 C3 0.618424 0.219917 0.04642  -0.123965706349
 C4 0.533018 0.219035 0.03847  0.174958321429
 C4 0.532987 0.10486 0.99016  0.174958321429
 C3 0.61806 0.101585 0.99641  -0.123965706349
 C3 0.940215 0.07678 0.9589  -0.123965706349
 C4 0.018868 0.080568 0.96172  0.174958321429
 C1 0.292295 0.565912 0.39569  0.675714571429
 C2 0.301678 0.512492 0.33551  0.00107207142857
 C3 0.381254 0.486598 0.31929  -0.123965706349
 C3 0.390436 0.433443 0.26802  -0.123965706349
 C2 0.320752 0.403634 0.22977  0.00107207142857
 C3 0.327601 0.347167 0.1784  -0.123965706349
 C2 0.25873 0.31873 0.14217  0.00107207142857
 C3 0.179871 0.347394 0.15565  -0.123965706349
 C3 0.171091 0.402344 0.2052  -0.123965706349
 C2 0.240548 0.431477 0.244  0.00107207142857
 C3 0.233227 0.485931 0.29749  -0.123965706349
 C1 0.267143 0.256976 0.08976  0.675714571429
 C1 0.29672 0.548525 0.5954  0.675714571429
 C2 0.304764 0.490558 0.65182  0.00107207142857
 C3 0.383778 0.478361 0.68163  -0.123965706349
 C3 0.39267 0.425908 0.73364  -0.123965706349
 C2 0.322949 0.383107 0.75927  0.00107207142857
 C3 0.329446 0.330789 0.81468  -0.123965706349
 C2 0.260419 0.290557 0.83945  0.00107207142857
 C3 0.181732 0.300834 0.8081  -0.123965706349
 C3 0.173311 0.351611 0.75442  -0.123965706349
 C2 0.242917 0.394625 0.7288  0.00107207142857
 C3 0.23609 0.448831 0.67512  -0.123965706349
 C1 0.268337 0.237374 0.90020  0.675714571429
 C4 0.028711 0.678111 0.45848  0.174958321429
 C3 0.950255 0.677742 0.45844  -0.123965706349
 C2 0.904799 0.632632 0.50702  0.00107207142857
 C3 0.814923 0.630191 0.5124  -0.123965706349
 C3 0.764142 0.674643 0.47703  -0.123965706349
 C2 0.674269 0.672161 0.48337  0.00107207142857
 C3 0.629392 0.731194 0.45721  -0.123965706349
 C4 0.543981 0.730314 0.4651  0.174958321429
 C4 0.54331 0.616104 0.52110  0.174958321429
 C3 0.628387 0.612833 0.51489  -0.123965706349
 C3 0.950523 0.588 0.55243  -0.123965706349
 C4 0.029178 0.5918 0.54968  0.174958321429
 N1 0.957272 0.38629 0.50379  -0.310840428571
 N1 0.527954 0.348699 0.51031  -0.310840428571
 N1 0.967595 0.897539 0.99991  -0.310840428571
 N1 0.538909 0.860005 0.  -0.310840428571
 N1 0.061522 0.125132 0.  -0.310840428571
 N1 0.490208 0.162667 0.00638  -0.310840428571
 N1 0.071845 0.636382 0.50377  -0.310840428571
 N1 0.501163 0.673972 0.49725  -0.310840428571
 O1 0.670762 0.436622 0.57886  -0.596006053571
 O1 0.809753 0.437825 0.5964  -0.596006053571
 O1 0.82853 0.792832 0.94566  -0.596006053571
 O1 0.689119 0.78671 0.93002  -0.596006053571
 O1 0.803005 0.468893 0.44179  -0.596006053571
 O1 0.667258 0.434614 0.42626  -0.596006053571
 O1 0.690253 0.786915 0.07728  -0.596006053571
 O1 0.825448 0.824271 0.09043  -0.596006053571
 O1 0.681586 0.947992 0.93260  -0.596006053571
 O1 0.820564 0.949153 0.91496  -0.596006053571
 O1 0.817654 0.281511 0.56568  -0.596006053571
 O1 0.678246 0.275337 0.58135  -0.596006053571
 O1 0.813402 0.980172 0.06199  -0.596006053571
 O1 0.677665 0.945899 0.07758  -0.596006053571
 O1 0.679802 0.275661 0.42653  -0.596006053571
 O1 0.815004 0.31298 0.41334  -0.596006053571
 O1 0.347531 0.074682 0.07497  -0.596006053571
 O1 0.208553 0.073518 0.09260  -0.596006053571
 O1 0.211464 0.74116 0.44189  -0.596006053571
 O1 0.350871 0.747335 0.42621  -0.596006053571
 O1 0.215714 0.0425 0.9455  -0.596006053571
 O1 0.351452 0.076772 0.92999  -0.596006053571
 O1 0.349315 0.74701 0.58104  -0.596006053571
 O1 0.214113 0.70969 0.59423  -0.596006053571
 O1 0.358355 0.586054 0.42870  -0.596006053571
 O1 0.219363 0.584847 0.41116  -0.596006053571
 O1 0.200587 0.229839 0.06191  -0.596006053571
 O1 0.339998 0.235962 0.07755  -0.596006053571
 O1 0.226112 0.553779 0.56577  -0.596006053571
 O1 0.361859 0.588057 0.58131  -0.596006053571
 O1 0.338864 0.235756 0.93029  -0.596006053571
 O1 0.203669 0.1984 0.91714  -0.596006053571
