#======================================================================

# CRYSTAL DATA

#----------------------------------------------------------------------

data_VESTA_phase_1


_pd_phase_name                         MOF
_cell_length_a                         13.46300
_cell_length_b                         13.22400
_cell_length_c                         13.23800
_cell_angle_alpha                      91.96500
_cell_angle_beta                       98.98700
_cell_angle_gamma                      81.00600
_symmetry_space_group_name_H-M         "P 1"
_symmetry_Int_Tables_number            1

loop_
_symmetry_equiv_pos_as_xyz
   "x, y, z"

loop_
   _atom_site_label
   _atom_site_fract_x
   _atom_site_fract_y
   _atom_site_fract_z
 _atom_site_charge
 Zn1 0.012901 0.36507 0.71216  1.04156232394
 Zn1 0.17877 0.244475 0.60419  1.04156232394
 Zn1 0.512925 0.287433 0.63492  1.04156232394
 Zn1 0.678767 0.395727 0.75547  1.04156232394
 H1 0.493516 0.0 0.21104  0.0955741989437
 H1 0.450003 0.923101 0.1305  0.0955741989437
 H1 0.6289 0.884073 0.01175  0.0955741989437
 H1 0.575446 0.786207 0.0657  0.0955741989437
 H1 0.598973 0.893541 0.33159  0.0955741989437
 H1 0.696401 0.801773 0.28875  0.0955741989437
 H1 0.701394 0.0 0.13211  0.0955741989437
 H1 0.772577 0.921945 0.2141  0.0955741989437
 H1 0.320619 0.054106 0.11075  0.0955741989437
 H1 0.506939 0.125102 0.89232  0.0955741989437
 H1 0.168593 0.149803 0.  0.0955741989437
 H1 0.356076 0.223203 0.79040  0.0955741989437
 H1 0.625867 0.731131 0.91678  0.0955741989437
 H1 0.904236 0.663848 0.12979  0.0955741989437
 H1 0.689968 0.596785 0.80049  0.0955741989437
 H1 0.97236 0.532152 0.00713  0.0955741989437
 H1 0.450547 0.616426 0.22921  0.0955741989437
 H1 0.662708 0.765704 0.43878  0.0955741989437
 H1 0.456964 0.483349 0.36143  0.0955741989437
 H1 0.668951 0.632916 0.56652  0.0955741989437
 H1 0.885863 0.99468 0.27973  0.0955741989437
 H1 0.64592 0.149713 0.43665  0.0955741989437
 H1 0.0 0.059192 0.41076  0.0955741989437
 H1 0.775652 0.218148 0.56459  0.0955741989437
 H1 0.99352 0.788767 0.97636  0.0955741989437
 H1 0.95003 0.869467 0.07693  0.0955741989437
 H1 0.128886 0.988369 0.11594  0.0955741989437
 H1 0.075381 0.934329 0.21366  0.0955741989437
 H1 0.098959 0.668194 0.10655  0.0955741989437
 H1 0.196371 0.711106 0.19821  0.0955741989437
 H1 0.201492 0.867947 0.97868  0.0955741989437
 H1 0.272594 0.785673 0.07810  0.0955741989437
 H1 0.820838 0.888964 0.94619  0.0955741989437
 H1 0.0 0.107631 0.87477  0.0955741989437
 H1 0.668764 0.99486 0.85027  0.0955741989437
 H1 0.856034 0.209415 0.77658  0.0955741989437
 H1 0.125726 0.083309 0.26899  0.0955741989437
 H1 0.404179 0.870032 0.33578  0.0955741989437
 H1 0.189836 0.199543 0.40337  0.0955741989437
 H1 0.472309 0.99264 0.46754  0.0955741989437
 H1 0.950435 0.771091 0.38328  0.0955741989437
 H1 0.162629 0.561044 0.23438  0.0955741989437
 H1 0.95684 0.638907 0.516  0.0955741989437
 H1 0.168878 0.433355 0.36720  0.0955741989437
 H1 0.385828 0.720339 0.  0.0955741989437
 H1 0.145913 0.56319 0.85038  0.0955741989437
 H1 0.513685 0.589276 0.94049  0.0955741989437
 H1 0.275638 0.435228 0.78182  0.0955741989437
 C1 0.614426 0.906277 0.17244  -0.0500226760563
 C2 0.509552 0.972452 0.14647  0.0744510739437
 C2 0.633618 0.83717 0.07989  0.0744510739437
 C2 0.618331 0.842437 0.26789  0.0744510739437
 C2 0.699521 0.97287 0.19737  0.0744510739437
 C3 0.423544 0.082609 0.00716  0.301369823944
 C4 0.328316 0.08917 0.0397  -0.115992363556
 C4 0.432865 0.130939 0.91712  -0.115992363556
 C4 0.243146 0.14324 0.98061  -0.115992363556
 C4 0.34768 0.18508 0.85943  -0.115992363556
 C5 0.251345 0.191495 0.89002  -0.226401426056
 C6 0.159755 0.249214 0.83014  0.706623573944
 C3 0.761583 0.705377 0.03140  0.301369823944
 C4 0.700933 0.686906 0.93862  -0.115992363556
 C4 0.85921 0.64871 0.05668  -0.115992363556
 C4 0.737579 0.610291 0.8727  -0.115992363556
 C4 0.896163 0.57546 0.98888  -0.115992363556
 C5 0.835183 0.55432 0.89661  -0.226401426056
 C6 0.876511 0.475067 0.82567  0.706623573944
 C3 0.555935 0.699191 0.32498  0.301369823944
 C4 0.497315 0.619765 0.30396  -0.115992363556
 C4 0.617234 0.704648 0.42031  -0.115992363556
 C4 0.501331 0.545837 0.37731  -0.115992363556
 C4 0.620649 0.630031 0.49279  -0.115992363556
 C5 0.56352 0.549804 0.47267  -0.226401426056
 C6 0.571778 0.470679 0.55223  0.706623573944
 C3 0.757082 0.068054 0.35041  0.301369823944
 C4 0.860756 0.042153 0.34248  -0.115992363556
 C4 0.726757 0.130774 0.431  -0.115992363556
 C4 0.932999 0.078964 0.41581  -0.115992363556
 C4 0.799242 0.168512 0.50261  -0.115992363556
 C5 0.903509 0.143228 0.49575  -0.226401426056
 C6 0.980046 0.189793 0.56793  0.706623573944
 C1 0.114442 0.827488 0.09374  -0.0500226760563
 C2 0.009597 0.853453 0.02764  0.0744510739437
 C2 0.133582 0.92014 0.16277  0.0744510739437
 C2 0.11832 0.731989 0.1575  0.0744510739437
 C2 0.199555 0.802554 0.02723  0.0744510739437
 C3 0.923647 0.992676 0.91745  0.301369823944
 C4 0.828481 0.959978 0.91099  -0.115992363556
 C4 0.932905 0.082762 0.86900  -0.115992363556
 C4 0.743291 0.019024 0.85681  -0.115992363556
 C4 0.847697 0.140366 0.81480  -0.115992363556
 C5 0.751435 0.109626 0.80844  -0.226401426056
 C6 0.659782 0.169212 0.75058  0.706623573944
 C3 0.261502 0.968552 0.29452  0.301369823944
 C4 0.20081 0.061409 0.31312  -0.115992363556
 C4 0.359148 0.943177 0.35105  -0.115992363556
 C4 0.237459 0.127288 0.38975  -0.115992363556
 C4 0.396086 0.010982 0.42431  -0.115992363556
 C5 0.335084 0.103293 0.44559  -0.226401426056
 C6 0.376454 0.174188 0.52484  0.706623573944
 C3 0.055848 0.675065 0.30071  0.301369823944
 C4 0.997202 0.696244 0.38003  -0.115992363556
 C4 0.117153 0.579616 0.29536  -0.115992363556
 C4 0.0 0.62291 0.45398  -0.115992363556
 C4 0.120567 0.507175 0.3  -0.115992363556
 C5 0.063419 0.527438 0.45012  -0.226401426056
 C6 0.071681 0.447864 0.52922  0.706623573944
 C3 0.257066 0.649528 0.93191  0.301369823944
 C4 0.360731 0.657525 0.9576  -0.115992363556
 C4 0.226746 0.568387 0.8692  -0.115992363556
 C4 0.43297 0.584181 0.92080  -0.115992363556
 C4 0.299228 0.497266 0.83141  -0.115992363556
 C5 0.403488 0.504171 0.85660  -0.226401426056
 C6 0.480046 0.431953 0.8100  0.706623573944
 O1 0.512254 0.030744 0.05765  -0.271937676056
 O1 0.732939 0.777536 0.1022  -0.271937676056
 O1 0.549389 0.768861 0.24846  -0.271937676056
 O1 0.678926 0.035982 0.28437  -0.271937676056
 O2 0.073393 0.256824 0.8556  -0.535967676056
 O3 0.170466 0.298193 0.74700  -0.673267676056
 O4 0.821747 0.412257 0.77744  -0.59969850939
 O4 0.969136 0.470845 0.81401  -0.59969850939
 O4 0.522794 0.395608 0.53271  -0.59969850939
 O4 0.629967 0.484859 0.6363  -0.59969850939
 O4 0.074788 0.156238 0.5647  -0.59969850939
 O4 0.946253 0.261205 0.62666  -0.59969850939
 O1 0.012369 0.942262 0.96934  -0.271937676056
 O1 0.232879 0.897757 0.22236  -0.271937676056
 O1 0.049336 0.75156 0.23102  -0.271937676056
 O1 0.178925 0.71557 0.96409  -0.271937676056
 O2 0.573666 0.143115 0.74265  -0.535967676056
 O3 0.67019 0.2527 0.7018  -0.673267676056
 O4 0.321725 0.22249 0.58761  -0.59969850939
 O4 0.469115 0.185744 0.52911  -0.59969850939
 O4 0.022664 0.467427 0.60421  -0.59969850939
 O4 0.129906 0.36369 0.5151  -0.59969850939
 O4 0.574762 0.435166 0.84360  -0.59969850939
 O4 0.446297 0.373174 0.73868  -0.59969850939
