#======================================================================

# CRYSTAL DATA

#----------------------------------------------------------------------

data_VESTA_phase_1


_pd_phase_name                         MOF
_cell_length_a                         19.82400
_cell_length_b                         20.61700
_cell_length_c                         13.36000
_cell_angle_alpha                      74.15400
_cell_angle_beta                       79.59800
_cell_angle_gamma                      61.87900
_symmetry_space_group_name_H-M         "P 1"
_symmetry_Int_Tables_number            1

loop_
_symmetry_equiv_pos_as_xyz
   "x, y, z"

loop_
   _atom_site_label
   _atom_site_fract_x
   _atom_site_fract_y
   _atom_site_fract_z
 _atom_site_charge
 Zn1 0.266112 0.290277 0.71877  0.873482278481
 Zn1 0.26611 0.790287 0.71877  0.873482278481
 Zn1 0.766108 0.290277 0.71877  0.873482278481
 Zn1 0.766105 0.790287 0.71877  0.873482278481
 Zn1 0.424032 0.44195 0.87337  0.873482278481
 Zn1 0.42403 0.94196 0.87337  0.873482278481
 Zn1 0.924027 0.441949 0.87337  0.873482278481
 Zn1 0.924025 0.941959 0.87337  0.873482278481
 Zn1 0.233452 0.210224 0.28119  0.873482278481
 Zn1 0.23345 0.710234 0.28119  0.873482278481
 Zn1 0.733447 0.210224 0.28119  0.873482278481
 Zn1 0.733445 0.710234 0.28119  0.873482278481
 Zn1 0.075464 0.058745 0.12639  0.873482278481
 Zn1 0.075462 0.558755 0.12639  0.873482278481
 Zn1 0.57546 0.058745 0.12639  0.873482278481
 Zn1 0.575457 0.558755 0.12639  0.873482278481
 Zn2 0.249603 0.250491 1.3e-0  0.566032278481
 Zn2 0.249601 0.7505 1.4e-0  0.566032278481
 Zn2 0.749598 0.25049 1.3e-0  0.566032278481
 Zn2 0.749596 0.7505 1.3e-0  0.566032278481
 H1 0.346705 0.345764 0.0130  0.0810114451477
 H1 0.346703 0.845774 0.0130  0.0810114451477
 H1 0.846701 0.345763 0.0130  0.0810114451477
 H1 0.846698 0.845773 0.0130  0.0810114451477
 H1 0.33987 0.06001 0.  0.0810114451477
 H1 0.339868 0.56002 0.  0.0810114451477
 H1 0.839866 0.060009 0.  0.0810114451477
 H1 0.839864 0.560019 0.  0.0810114451477
 H1 0.075151 0.39776 0.67861  0.0810114451477
 H1 0.075149 0.89777 0.67861  0.0810114451477
 H1 0.575146 0.39776 0.67861  0.0810114451477
 H1 0.575144 0.89777 0.67861  0.0810114451477
 H1 0.061385 0.357523 0.  0.0810114451477
 H1 0.061382 0.857533 0.  0.0810114451477
 H1 0.56138 0.357522 0.  0.0810114451477
 H1 0.561378 0.857532 0.  0.0810114451477
 H1 0.375712 0.382516 0.6861  0.0810114451477
 H1 0.375709 0.882526 0.6861  0.0810114451477
 H1 0.875707 0.382516 0.68614  0.0810114451477
 H1 0.875705 0.882526 0.6861  0.0810114451477
 H1 0.355611 0.107329 0.68109  0.0810114451477
 H1 0.355608 0.607339 0.68109  0.0810114451477
 H1 0.855606 0.107329 0.68109  0.0810114451477
 H1 0.855603 0.607339 0.68109  0.0810114451477
 H1 0.152777 0.15493 0.9868  0.0810114451477
 H1 0.152775 0.65494 0.9868  0.0810114451477
 H1 0.652772 0.154929 0.98687  0.0810114451477
 H1 0.65277 0.654939 0.9868  0.0810114451477
 H1 0.159512 0.440593 0.99050  0.0810114451477
 H1 0.15951 0.940603 0.99050  0.0810114451477
 H1 0.659508 0.440593 0.99050  0.0810114451477
 H1 0.659506 0.940602 0.99050  0.0810114451477
 H1 0.424438 0.102678 0.32111  0.0810114451477
 H1 0.424436 0.602688 0.3211  0.0810114451477
 H1 0.924433 0.102679 0.32111  0.0810114451477
 H1 0.924431 0.602689 0.3211  0.0810114451477
 H1 0.438043 0.143343 0.99268  0.0810114451477
 H1 0.438041 0.643353 0.99268  0.0810114451477
 H1 0.938039 0.143343 0.99268  0.0810114451477
 H1 0.938036 0.643352 0.99268  0.0810114451477
 H1 0.124044 0.117828 0.31381  0.0810114451477
 H1 0.124042 0.617838 0.31381  0.0810114451477
 H1 0.624039 0.117827 0.31381  0.0810114451477
 H1 0.624037 0.617837 0.31381  0.0810114451477
 H1 0.143922 0.393253 0.31892  0.0810114451477
 H1 0.143919 0.893263 0.31892  0.0810114451477
 H1 0.643917 0.393252 0.31892  0.0810114451477
 H1 0.643914 0.893262 0.31892  0.0810114451477
 C1 0.088902 0.377501 0.75976  0.280528945148
 C1 0.0889 0.877511 0.75976  0.280528945148
 C1 0.588897 0.377501 0.75976  0.280528945148
 C1 0.588895 0.877511 0.75976  0.280528945148
 C1 0.083146 0.355056 0.92676  0.280528945148
 C1 0.083143 0.855066 0.92676  0.280528945148
 C1 0.583141 0.355056 0.92676  0.280528945148
 C1 0.583139 0.855066 0.92676  0.280528945148
 C1 0.360365 0.363429 0.76690  0.280528945148
 C1 0.360363 0.863439 0.76690  0.280528945148
 C1 0.86036 0.363428 0.76690  0.280528945148
 C1 0.860358 0.863438 0.76690  0.280528945148
 C1 0.344962 0.344371 0.93318  0.280528945148
 C1 0.34496 0.844381 0.93318  0.280528945148
 C1 0.844957 0.344371 0.93318  0.280528945148
 C1 0.844955 0.84438 0.93318  0.280528945148
 C1 0.343531 0.113043 0.7617  0.280528945148
 C1 0.343528 0.613053 0.7617  0.280528945148
 C1 0.843526 0.113043 0.76174  0.280528945148
 C1 0.843524 0.613053 0.76174  0.280528945148
 C1 0.334714 0.089661 0.9286  0.280528945148
 C1 0.334711 0.589671 0.9286  0.280528945148
 C1 0.834709 0.08966 0.9286  0.280528945148
 C1 0.834707 0.58967 0.9286  0.280528945148
 C2 0.254451 0.357427 0.50155  0.703097278481
 C2 0.254448 0.857437 0.50155  0.703097278481
 C2 0.754446 0.357427 0.50155  0.703097278481
 C2 0.754444 0.857436 0.50155  0.703097278481
 C3 0.297962 0.371311 0.39861  -0.270697721519
 C3 0.297959 0.871321 0.39861  -0.270697721519
 C3 0.797957 0.371311 0.39861  -0.270697721519
 C3 0.797955 0.871321 0.39861  -0.270697721519
 C4 0.349222 0.312579 0.34991  0.184662278481
 C4 0.34922 0.812589 0.34991  0.184662278481
 C4 0.849218 0.312579 0.34991  0.184662278481
 C4 0.849215 0.812589 0.34991  0.184662278481
 C4 0.289755 0.443563 0.34946  0.184662278481
 C4 0.289753 0.943573 0.34946  0.184662278481
 C4 0.78975 0.443563 0.34946  0.184662278481
 C4 0.789748 0.943573 0.34946  0.184662278481
 C4 0.39062 0.325511 0.25718  0.184662278481
 C4 0.390618 0.825521 0.25718  0.184662278481
 C4 0.890616 0.325511 0.25718  0.184662278481
 C4 0.890613 0.825521 0.25718  0.184662278481
 C4 0.331961 0.455982 0.25741  0.184662278481
 C4 0.331958 0.955992 0.25741  0.184662278481
 C4 0.831956 0.455982 0.25741  0.184662278481
 C4 0.831954 0.955992 0.25741  0.184662278481
 C3 0.383604 0.397325 0.20976  -0.270697721519
 C3 0.383602 0.897335 0.20976  -0.270697721519
 C3 0.8836 0.397325 0.20976  -0.270697721519
 C3 0.883597 0.897335 0.20976  -0.270697721519
 C2 0.430074 0.412119 0.11045  0.703097278481
 C2 0.430072 0.912129 0.11045  0.703097278481
 C2 0.930069 0.412119 0.11045  0.703097278481
 C2 0.930067 0.912129 0.11045  0.703097278481
 C1 0.410647 0.123041 0.2399  0.280528945148
 C1 0.410644 0.623051 0.23998  0.280528945148
 C1 0.910642 0.123041 0.2399  0.280528945148
 C1 0.91064 0.623051 0.23998  0.280528945148
 C1 0.416315 0.145702 0.07296  0.280528945148
 C1 0.416313 0.645712 0.07296  0.280528945148
 C1 0.916311 0.145702 0.07296  0.280528945148
 C1 0.916308 0.645711 0.07296  0.280528945148
 C1 0.139306 0.137012 0.23305  0.280528945148
 C1 0.139304 0.637022 0.23305  0.280528945148
 C1 0.639301 0.137011 0.23305  0.280528945148
 C1 0.639299 0.637021 0.23305  0.280528945148
 C1 0.154567 0.156252 0.06675  0.280528945148
 C1 0.154565 0.656262 0.06675  0.280528945148
 C1 0.654563 0.156252 0.06675  0.280528945148
 C1 0.654561 0.656261 0.06675  0.280528945148
 C1 0.155939 0.387552 0.23826  0.280528945148
 C1 0.155936 0.887562 0.23826  0.280528945148
 C1 0.655934 0.387552 0.23826  0.280528945148
 C1 0.655931 0.887562 0.23826  0.280528945148
 C1 0.164679 0.410955 0.07137  0.280528945148
 C1 0.164676 0.910965 0.07137  0.280528945148
 C1 0.664674 0.410954 0.07137  0.280528945148
 C1 0.664672 0.910964 0.07137  0.280528945148
 C2 0.245442 0.142711 0.49840  0.703097278481
 C2 0.245439 0.642721 0.49840  0.703097278481
 C2 0.745437 0.142711 0.49840  0.703097278481
 C2 0.745434 0.642721 0.49840  0.703097278481
 C3 0.201956 0.128773 0.60134  -0.270697721519
 C3 0.201953 0.628783 0.60134  -0.270697721519
 C3 0.701951 0.128773 0.60134  -0.270697721519
 C3 0.701948 0.628783 0.60134  -0.270697721519
 C4 0.150715 0.1875 0.65005  0.184662278481
 C4 0.150712 0.68751 0.65005  0.184662278481
 C4 0.65071 0.1875 0.65005  0.184662278481
 C4 0.650707 0.68751 0.65005  0.184662278481
 C4 0.210167 0.056522 0.65050  0.184662278481
 C4 0.210164 0.556532 0.65050  0.184662278481
 C4 0.710162 0.056522 0.65050  0.184662278481
 C4 0.71016 0.556532 0.65050  0.184662278481
 C4 0.109312 0.174576 0.74278  0.184662278481
 C4 0.10931 0.674586 0.74278  0.184662278481
 C4 0.609307 0.174576 0.74278  0.184662278481
 C4 0.609305 0.674586 0.74278  0.184662278481
 C4 0.167952 0.044112 0.74255  0.184662278481
 C4 0.16795 0.544122 0.74255  0.184662278481
 C4 0.667948 0.044111 0.74255  0.184662278481
 C4 0.667945 0.544121 0.74255  0.184662278481
 C3 0.116295 0.102773 0.79018  -0.270697721519
 C3 0.116292 0.602783 0.79018  -0.270697721519
 C3 0.61629 0.102773 0.79018  -0.270697721519
 C3 0.616287 0.602783 0.79018  -0.270697721519
 C2 0.069788 0.08807 0.889  0.703097278481
 C2 0.069786 0.58808 0.889  0.703097278481
 C2 0.569784 0.08807 0.889  0.703097278481
 C2 0.569781 0.58808 0.889  0.703097278481
 N1 0.160221 0.333351 0.78943  -0.240646054852
 N1 0.160218 0.833361 0.78943  -0.240646054852
 N1 0.660216 0.333351 0.78943  -0.240646054852
 N1 0.660214 0.83336 0.78943  -0.240646054852
 N1 0.156382 0.318878 0.89706  -0.240646054852
 N1 0.156379 0.818888 0.89706  -0.240646054852
 N1 0.656377 0.318878 0.89706  -0.240646054852
 N1 0.656375 0.818888 0.89706  -0.240646054852
 N2 0.038409 0.392617 0.84370  -0.485867721519
 N2 0.038407 0.892627 0.84370  -0.485867721519
 N2 0.538404 0.392617 0.84370  -0.485867721519
 N2 0.538402 0.892627 0.84370  -0.485867721519
 N1 0.323159 0.321065 0.79684  -0.240646054852
 N1 0.323157 0.821075 0.79684  -0.240646054852
 N1 0.823154 0.321064 0.79684  -0.240646054852
 N1 0.823152 0.821074 0.79684  -0.240646054852
 N1 0.313442 0.308713 0.90411  -0.240646054852
 N1 0.31344 0.808723 0.90411  -0.240646054852
 N1 0.813438 0.308713 0.90411  -0.240646054852
 N1 0.813436 0.808722 0.90411  -0.240646054852
 N2 0.375069 0.379919 0.84984  -0.485867721519
 N2 0.375066 0.879928 0.84984  -0.485867721519
 N2 0.875064 0.379918 0.84984  -0.485867721519
 N2 0.875062 0.879928 0.84984  -0.485867721519
 N1 0.306396 0.179175 0.79018  -0.240646054852
 N1 0.306394 0.679185 0.79018  -0.240646054852
 N1 0.806391 0.179175 0.79018  -0.240646054852
 N1 0.806389 0.679185 0.79018  -0.240646054852
 N1 0.300758 0.164091 0.89807  -0.240646054852
 N1 0.300756 0.664101 0.89807  -0.240646054852
 N1 0.800753 0.16409 0.89807  -0.240646054852
 N1 0.800751 0.6641 0.89807  -0.240646054852
 N2 0.36229 0.054944 0.84652  -0.485867721519
 N2 0.362287 0.554954 0.84652  -0.485867721519
 N2 0.862285 0.054944 0.84652  -0.485867721519
 N2 0.862282 0.554954 0.84652  -0.485867721519
 N1 0.339315 0.167242 0.21038  -0.240646054852
 N1 0.339312 0.667252 0.21038  -0.240646054852
 N1 0.83931 0.167241 0.21038  -0.240646054852
 N1 0.839308 0.667251 0.21038  -0.240646054852
 N1 0.34309 0.181855 0.10275  -0.240646054852
 N1 0.343088 0.681865 0.10275  -0.240646054852
 N1 0.843086 0.181855 0.10275  -0.240646054852
 N1 0.843083 0.681865 0.10275  -0.240646054852
 N2 0.461096 0.108027 0.15598  -0.485867721519
 N2 0.461094 0.608037 0.15598  -0.485867721519
 N2 0.961092 0.108027 0.15598  -0.485867721519
 N2 0.96109 0.608037 0.15598  -0.485867721519
 N1 0.176459 0.179424 0.20314  -0.240646054852
 N1 0.176457 0.679434 0.20314  -0.240646054852
 N1 0.676455 0.179423 0.20314  -0.240646054852
 N1 0.676452 0.679433 0.20314  -0.240646054852
 N1 0.186098 0.191882 0.09586  -0.240646054852
 N1 0.186096 0.691891 0.09586  -0.240646054852
 N1 0.686093 0.191881 0.09586  -0.240646054852
 N1 0.686091 0.691891 0.09586  -0.240646054852
 N2 0.124539 0.120615 0.15007  -0.485867721519
 N2 0.124537 0.620625 0.15007  -0.485867721519
 N2 0.624535 0.120614 0.15007  -0.485867721519
 N2 0.624533 0.620624 0.15007  -0.485867721519
 N1 0.193044 0.321414 0.20983  -0.240646054852
 N1 0.193041 0.821424 0.20983  -0.240646054852
 N1 0.693039 0.321413 0.20983  -0.240646054852
 N1 0.693037 0.821423 0.20983  -0.240646054852
 N1 0.198627 0.336525 0.10194  -0.240646054852
 N1 0.198625 0.836535 0.10194  -0.240646054852
 N1 0.698622 0.336525 0.10194  -0.240646054852
 N1 0.69862 0.836534 0.10194  -0.240646054852
 N2 0.137146 0.445666 0.15349  -0.485867721519
 N2 0.137144 0.945676 0.15349  -0.485867721519
 N2 0.637142 0.445665 0.15349  -0.485867721519
 N2 0.637139 0.945675 0.15349  -0.485867721519
 O1 0.30072 0.311866 0.57487  -0.601827721519
 O1 0.300717 0.811876 0.57487  -0.601827721519
 O1 0.800715 0.311866 0.57487  -0.601827721519
 O1 0.800712 0.811876 0.57487  -0.601827721519
 O2 0.183655 0.388694 0.50821  -0.595457721519
 O2 0.183653 0.888704 0.50821  -0.595457721519
 O2 0.68365 0.388695 0.50821  -0.595457721519
 O2 0.683648 0.888704 0.50821  -0.595457721519
 O2 0.989025 0.416782 0.11674  -0.595457721519
 O2 0.989022 0.916792 0.11674  -0.595457721519
 O2 0.48902 0.416782 0.11674  -0.595457721519
 O2 0.489018 0.916792 0.11674  -0.595457721519
 O1 0.400006 0.418701 0.02778  -0.601827721519
 O1 0.400003 0.918711 0.02778  -0.601827721519
 O1 0.900001 0.418701 0.02778  -0.601827721519
 O1 0.899999 0.918711 0.02778  -0.601827721519
 O1 0.199136 0.18837 0.42515  -0.601827721519
 O1 0.199133 0.68838 0.42515  -0.601827721519
 O1 0.699131 0.18837 0.42515  -0.601827721519
 O1 0.699128 0.68838 0.42515  -0.601827721519
 O2 0.316235 0.111418 0.49170  -0.595457721519
 O2 0.316232 0.611428 0.49170  -0.595457721519
 O2 0.81623 0.111418 0.49170  -0.595457721519
 O2 0.816227 0.611428 0.49170  -0.595457721519
 O2 0.51095 0.083182 0.88331  -0.595457721519
 O2 0.510948 0.583192 0.88331  -0.595457721519
 O2 0.0 0.083182 0.88331  -0.595457721519
 O2 0.0 0.583192 0.88331  -0.595457721519
 O1 0.09971 0.081838 0.97210  -0.601827721519
 O1 0.099708 0.581848 0.97210  -0.601827721519
 O1 0.599706 0.081838 0.97210  -0.601827721519
 O1 0.599703 0.581848 0.97210  -0.601827721519
 F1 0.358394 0.24157 0.39186  -0.126655221519
 F1 0.358391 0.74158 0.39186  -0.126655221519
 F1 0.858389 0.24157 0.39186  -0.126655221519
 F1 0.858387 0.74158 0.39186  -0.126655221519
 F1 0.241273 0.503148 0.39213  -0.126655221519
 F1 0.24127 0.0 0.39213  -0.126655221519
 F1 0.741268 0.503148 0.39213  -0.126655221519
 F1 0.741265 0.0 0.39213  -0.126655221519
 F1 0.439099 0.266524 0.21240  -0.126655221519
 F1 0.439096 0.766534 0.21240  -0.126655221519
 F1 0.939094 0.266524 0.21240  -0.126655221519
 F1 0.939091 0.766534 0.21240  -0.126655221519
 F1 0.322257 0.027248 0.21265  -0.126655221519
 F1 0.322254 0.527258 0.21265  -0.126655221519
 F1 0.822252 0.027248 0.21265  -0.126655221519
 F1 0.822249 0.527258 0.21265  -0.126655221519
 F1 0.14159 0.258491 0.60813  -0.126655221519
 F1 0.141587 0.758501 0.60813  -0.126655221519
 F1 0.641585 0.258491 0.60813  -0.126655221519
 F1 0.641583 0.758501 0.60813  -0.126655221519
 F1 0.258672 0.996922 0.60787  -0.126655221519
 F1 0.258669 0.496932 0.60787  -0.126655221519
 F1 0.758667 0.996922 0.60787  -0.126655221519
 F1 0.758664 0.496932 0.60787  -0.126655221519
 F1 0.060866 0.233543 0.78759  -0.126655221519
 F1 0.060864 0.733553 0.78759  -0.126655221519
 F1 0.560862 0.233543 0.78759  -0.126655221519
 F1 0.560859 0.733553 0.78759  -0.126655221519
 F1 0.177704 0.472839 0.78735  -0.126655221519
 F1 0.177702 0.972849 0.78735  -0.126655221519
 F1 0.677699 0.472839 0.78735  -0.126655221519
 F1 0.677697 0.972849 0.78735  -0.126655221519
