#======================================================================

# CRYSTAL DATA

#----------------------------------------------------------------------

data_VESTA_phase_1


_pd_phase_name                         MOF
_cell_length_a                         18.42600
_cell_length_b                         18.43200
_cell_length_c                         18.43100
_cell_angle_alpha                      60.14300
_cell_angle_beta                       60.16000
_cell_angle_gamma                      60.15800
_symmetry_space_group_name_H-M         "P 1"
_symmetry_Int_Tables_number            1

loop_
_symmetry_equiv_pos_as_xyz
   "x, y, z"

loop_
   _atom_site_label
   _atom_site_fract_x
   _atom_site_fract_y
   _atom_site_fract_z
 _atom_site_charge
 Zn1 0.206634 0.380422 0.20672  1.05326018868
 Zn1 0.380465 0.20663 0.20663  1.05326018868
 Zn1 0.206358 0.206304 0.20632  1.05326018868
 Zn1 0.206627 0.20671 0.38044  1.05326018868
 Zn1 0.619532 0.793328 0.79338  1.05326018868
 Zn1 0.793363 0.619536 0.79329  1.05326018868
 Zn1 0.793639 0.793655 0.79369  1.05326018868
 Zn1 0.793371 0.793248 0.61957  1.05326018868
 H1 0.04845 0.567966 0.04846  0.0949901886792
 H1 0.568165 0.048161 0.3356  0.0949901886792
 H1 0.047738 0.335666 0.04775  0.0949901886792
 H1 0.335631 0.048197 0.56811  0.0949901886792
 H1 0.047736 0.047748 0.33568  0.0949901886792
 H1 0.568168 0.335651 0.04816  0.0949901886792
 H1 0.048456 0.048449 0.56799  0.0949901886792
 H1 0.33563 0.56809 0.04820  0.0949901886792
 H1 0.048162 0.335641 0.56817  0.0949901886792
 H1 0.568071 0.048405 0.04840  0.0949901886792
 H1 0.048158 0.568151 0.33566  0.0949901886792
 H1 0.335641 0.047747 0.04774  0.0949901886792
 H1 0.431926 0.951553 0.95161  0.0949901886792
 H1 0.951839 0.431807 0.66435  0.0949901886792
 H1 0.664357 0.952211 0.95227  0.0949901886792
 H1 0.951835 0.664316 0.43184  0.0949901886792
 H1 0.952264 0.952209 0.66433  0.0949901886792
 H1 0.664368 0.431867 0.95181  0.0949901886792
 H1 0.951544 0.951507 0.43202  0.0949901886792
 H1 0.43183 0.664306 0.95185  0.0949901886792
 H1 0.664367 0.951759 0.4319  0.0949901886792
 H1 0.951547 0.431991 0.95155  0.0949901886792
 H1 0.431833 0.951796 0.6643  0.0949901886792
 H1 0.952259 0.664292 0.95226  0.0949901886792
 C1 0.026846 0.538945 0.02685  -0.0282698113208
 C1 0.539083 0.026677 0.40766  -0.0282698113208
 C1 0.026438 0.40765 0.02644  -0.0282698113208
 C1 0.407634 0.026696 0.5390  -0.0282698113208
 C1 0.026438 0.026441 0.40767  -0.0282698113208
 C1 0.539083 0.40764 0.02666  -0.0282698113208
 C1 0.02685 0.026844 0.53897  -0.0282698113208
 C1 0.407633 0.539038 0.02668  -0.0282698113208
 C1 0.026667 0.407633 0.5390  -0.0282698113208
 C1 0.538995 0.026823 0.02682  -0.0282698113208
 C1 0.026665 0.53906 0.40766  -0.0282698113208
 C1 0.407639 0.026445 0.0264  -0.0282698113208
 C1 0.461002 0.973132 0.97319  -0.0282698113208
 C1 0.973333 0.460898 0.59235  -0.0282698113208
 C1 0.592358 0.973511 0.97357  -0.0282698113208
 C1 0.973331 0.592325 0.46093  -0.0282698113208
 C1 0.973561 0.973516 0.59234  -0.0282698113208
 C1 0.592365 0.46092 0.97334  -0.0282698113208
 C1 0.973148 0.973113 0.46104  -0.0282698113208
 C1 0.460915 0.592317 0.97336  -0.0282698113208
 C1 0.592363 0.973261 0.4609  -0.0282698113208
 C1 0.973151 0.461013 0.97316  -0.0282698113208
 C1 0.460915 0.97328 0.59235  -0.0282698113208
 C1 0.973559 0.592308 0.97357  -0.0282698113208
 C2 0.110948 0.388893 0.11099  0.682980188679
 C3 0.05363 0.446264 0.05364  -0.175399811321
 C2 0.389078 0.111163 0.3890  0.682980188679
 C3 0.446387 0.053714 0.44638  -0.175399811321
 C2 0.110949 0.110978 0.38891  0.682980188679
 C3 0.053626 0.053643 0.44628  -0.175399811321
 C2 0.38908 0.389043 0.11114  0.682980188679
 C3 0.446387 0.446361 0.05375  -0.175399811321
 C2 0.111109 0.38908 0.38910  0.682980188679
 C3 0.053737 0.446376 0.44640  -0.175399811321
 C2 0.388938 0.11094 0.11094  0.682980188679
 C3 0.44629 0.053623 0.05363  -0.175399811321
 C2 0.611059 0.889017 0.88907  0.682980188679
 C3 0.553707 0.946335 0.94638  -0.175399811321
 C2 0.888888 0.610878 0.6109  0.682980188679
 C3 0.946259 0.553581 0.55361  -0.175399811321
 C2 0.889051 0.888979 0.61110  0.682980188679
 C3 0.946373 0.946314 0.55373  -0.175399811321
 C2 0.610918 0.610914 0.88887  0.682980188679
 C3 0.553611 0.553597 0.94626  -0.175399811321
 C2 0.61092 0.888795 0.6109  0.682980188679
 C3 0.55361 0.946242 0.5536  -0.175399811321
 C2 0.889048 0.611065 0.88902  0.682980188679
 C3 0.946369 0.553694 0.9463  -0.175399811321
 O1 0.249986 0.24997 0.24998  -1.23500981132
 O1 0.750012 0.749988 0.75003  -1.23500981132
 O2 0.133175 0.428497 0.13322  -0.568679811321
 O2 0.428677 0.133317 0.3052  -0.568679811321
 O2 0.132914 0.305099 0.13296  -0.568679811321
 O2 0.305285 0.133315 0.42864  -0.568679811321
 O2 0.132913 0.132948 0.30511  -0.568679811321
 O2 0.428681 0.305266 0.13332  -0.568679811321
 O2 0.133172 0.133216 0.42852  -0.568679811321
 O2 0.305286 0.428629 0.13333  -0.568679811321
 O2 0.133276 0.305295 0.42869  -0.568679811321
 O2 0.42857 0.133163 0.13316  -0.568679811321
 O2 0.13328 0.428677 0.30531  -0.568679811321
 O2 0.305122 0.132909 0.13292  -0.568679811321
 O2 0.571427 0.866795 0.86685  -0.568679811321
 O2 0.866717 0.57128 0.69470  -0.568679811321
 O2 0.694875 0.867049 0.86709  -0.568679811321
 O2 0.866722 0.694663 0.57132  -0.568679811321
 O2 0.867085 0.86701 0.69490  -0.568679811321
 O2 0.694711 0.571329 0.86668  -0.568679811321
 O2 0.866827 0.866742 0.57149  -0.568679811321
 O2 0.571317 0.694692 0.86669  -0.568679811321
 O2 0.694712 0.866642 0.57137  -0.568679811321
 O2 0.866822 0.571462 0.86679  -0.568679811321
 O2 0.57132 0.866641 0.6947  -0.568679811321
 O2 0.867083 0.694859 0.86705  -0.568679811321
