#======================================================================

# CRYSTAL DATA

#----------------------------------------------------------------------

data_VESTA_phase_1


_pd_phase_name                         MOF
_cell_length_a                         14.23900
_cell_length_b                         14.54200
_cell_length_c                         15.06800
_cell_angle_alpha                      89.69100
_cell_angle_beta                       90.22200
_cell_angle_gamma                      90.18900
_symmetry_space_group_name_H-M         "P 1"
_symmetry_Int_Tables_number            1

loop_
_symmetry_equiv_pos_as_xyz
   "x, y, z"

loop_
   _atom_site_label
   _atom_site_fract_x
   _atom_site_fract_y
   _atom_site_fract_z
 _atom_site_charge
 Zn1 0.564811 0.543093 0.94793  0.768258125
 Zn1 0.691047 0.660433 0.82545  0.768258125
 Zn1 0.934412 0.45719 0.448  0.768258125
 Zn1 0.806955 0.343174 0.32602  0.768258125
 Zn1 0.432286 0.043052 0.55122  0.768258125
 Zn1 0.308103 0.160273 0.67097  0.768258125
 Zn1 0.065681 0.960607 0.05095  0.768258125
 Zn1 0.189826 0.843689 0.17448  0.768258125
 H1 0.834095 0.764468 0.02647  0.096581875
 H1 0.976779 0.699145 0.27126  0.096581875
 H1 0.739934 0.536059 0.18640  0.096581875
 H1 0.665753 0.236631 0.52801  0.096581875
 H1 0.521675 0.304301 0.7697  0.096581875
 H1 0.760695 0.464887 0.68607  0.096581875
 H1 0.167231 0.263467 0.47117  0.096581875
 H1 0.020222 0.200349 0.22858  0.096581875
 H1 0.258149 0.037257 0.30973  0.096581875
 H1 0.333596 0.738721 0.974  0.096581875
 H1 0.476465 0.803896 0.73085  0.096581875
 H1 0.238822 0.965099 0.8125  0.096581875
 C1 0.779397 0.648003 0.09926  -0.182444791667
 C2 0.840971 0.722015 0.08580  0.0422552083333
 C1 0.911767 0.740739 0.14789  -0.182444791667
 C2 0.920971 0.685243 0.22362  0.0422552083333
 C1 0.858747 0.611884 0.23775  -0.182444791667
 C2 0.787833 0.593448 0.17563  0.0422552083333
 C3 0.706543 0.627097 0.03106  0.719775208333
 C3 0.979235 0.817831 0.13293  0.719775208333
 C3 0.869254 0.551076 0.31655  0.719775208333
 C1 0.721097 0.352781 0.6000  -0.182444791667
 C2 0.658835 0.279386 0.58664  0.0422552083333
 C1 0.587262 0.261686 0.64791  -0.182444791667
 C2 0.577997 0.31755 0.72277  0.0422552083333
 C1 0.640733 0.390471 0.73675  -0.182444791667
 C2 0.712381 0.407858 0.67542  0.0422552083333
 C3 0.794648 0.373006 0.53258  0.719775208333
 C3 0.519019 0.185337 0.63281  0.719775208333
 C3 0.630388 0.45193 0.81455  0.719775208333
 C1 0.220605 0.148169 0.39751  -0.182444791667
 C2 0.159253 0.221636 0.41196  0.0422552083333
 C1 0.087236 0.240602 0.35109  -0.182444791667
 C2 0.076772 0.186127 0.27540  0.0422552083333
 C1 0.138637 0.11327 0.26024  -0.182444791667
 C2 0.210597 0.094344 0.32127  0.0422552083333
 C3 0.294563 0.127034 0.46475  0.719775208333
 C3 0.020001 0.317005 0.36723  0.719775208333
 C3 0.126473 0.053954 0.18122  0.719775208333
 C1 0.278403 0.854022 0.90070  -0.182444791667
 C2 0.340454 0.78088 0.91528  0.0422552083333
 C1 0.411549 0.762555 0.85396  -0.182444791667
 C2 0.420587 0.817616 0.77796  0.0422552083333
 C1 0.35816 0.890272 0.76283  -0.182444791667
 C2 0.286955 0.908299 0.82413  0.0422552083333
 C3 0.204967 0.874614 0.9679  0.719775208333
 C3 0.47916 0.686011 0.86935  0.719775208333
 C3 0.36885 0.950425 0.6835  0.719775208333
 O1 0.654344 0.555439 0.04438  -0.594169791667
 O1 0.698898 0.679966 0.96403  -0.594169791667
 O1 0.967666 0.867163 0.06240  -0.594169791667
 O1 0.044168 0.831321 0.18969  -0.594169791667
 O1 0.942121 0.562039 0.36671  -0.594169791667
 O1 0.807452 0.489444 0.33272  -0.594169791667
 O1 0.847519 0.444072 0.54619  -0.594169791667
 O1 0.802383 0.320656 0.46574  -0.594169791667
 O1 0.530399 0.13617 0.56269  -0.594169791667
 O1 0.453678 0.172288 0.68890  -0.594169791667
 O1 0.558023 0.440655 0.8650  -0.594169791667
 O1 0.691884 0.513912 0.82942  -0.594169791667
 O1 0.345692 0.055034 0.45188  -0.594169791667
 O1 0.304353 0.179809 0.5311  -0.594169791667
 O1 0.032441 0.364799 0.43824  -0.594169791667
 O1 0.954509 0.33173 0.31133  -0.594169791667
 O1 0.053974 0.066348 0.13092  -0.594169791667
 O1 0.186671 0.991559 0.16413  -0.594169791667
 O1 0.152186 0.945275 0.95304  -0.594169791667
 O1 0.197453 0.82268 0.0356  -0.594169791667
 O1 0.468414 0.63722 0.94048  -0.594169791667
 O1 0.543255 0.671893 0.81253  -0.594169791667
 O1 0.440786 0.93822 0.63313  -0.594169791667
 O1 0.308182 0.012665 0.66698  -0.594169791667
