#======================================================================

# CRYSTAL DATA

#----------------------------------------------------------------------

data_VESTA_phase_1


_pd_phase_name                         MOF
_cell_length_a                         13.50100
_cell_length_b                         14.42200
_cell_length_c                         15.35300
_cell_angle_alpha                      89.96100
_cell_angle_beta                       90.05600
_cell_angle_gamma                      88.50700
_symmetry_space_group_name_H-M         "P 1"
_symmetry_Int_Tables_number            1

loop_
_symmetry_equiv_pos_as_xyz
   "x, y, z"

loop_
   _atom_site_label
   _atom_site_fract_x
   _atom_site_fract_y
   _atom_site_fract_z
 _atom_site_charge
 Zn1 0.457933 0.960363 0.0557  0.757288375
 Zn1 0.321424 0.832328 0.16313  0.757288375
 Zn1 0.041951 0.039422 0.55561  0.757288375
 Zn1 0.178971 0.164573 0.66318  0.757288375
 Zn1 0.537147 0.460409 0.44098  0.757288375
 Zn1 0.679063 0.327476 0.34018  0.757288375
 Zn1 0.96306 0.539569 0.94106  0.757288375
 Zn1 0.820972 0.672483 0.84017  0.757288375
 H1 0.539462 0.69602 0.26539  0.100191291667
 H1 0.783591 0.517081 0.18656  0.100191291667
 H1 0.707975 0.76165 0.03655  0.100191291667
 H1 0.961187 0.303894 0.76564  0.100191291667
 H1 0.716883 0.482746 0.68636  0.100191291667
 H1 0.792111 0.237984 0.53697  0.100191291667
 H1 0.459661 0.198096 0.23067  0.100191291667
 H1 0.220572 0.026362 0.31282  0.100191291667
 H1 0.29502 0.267245 0.46282  0.100191291667
 H1 0.040579 0.800787 0.73043  0.100191291667
 H1 0.279717 0.973068 0.8117  0.100191291667
 H1 0.205581 0.732888 0.96304  0.100191291667
 C1 0.617453 0.738165 0.14995  -0.178525375
 C2 0.60031 0.679919 0.22105  0.035674625
 C1 0.660517 0.600734 0.23465  -0.178525375
 C2 0.737575 0.579251 0.17653  0.035674625
 C1 0.754488 0.637062 0.10506  -0.178525375
 C2 0.694916 0.716905 0.0922  0.035674625
 C3 0.550069 0.819837 0.13424  0.707431291667
 C3 0.640895 0.536889 0.30870  0.707431291667
 C3 0.832778 0.612934 0.04064  0.707431291667
 C1 0.882931 0.261575 0.65031  -0.178525375
 C2 0.900221 0.319924 0.72128  0.035674625
 C1 0.840002 0.399122 0.73469  -0.178525375
 C2 0.762847 0.420543 0.67651  0.035674625
 C1 0.745827 0.362676 0.60515  -0.178525375
 C2 0.805328 0.282787 0.59254  0.035674625
 C3 0.950312 0.179898 0.6346  0.707431291667
 C3 0.859554 0.463012 0.80869  0.707431291667
 C3 0.667451 0.386846 0.5406  0.707431291667
 C1 0.383245 0.242007 0.34751  -0.178525375
 C2 0.399985 0.183648 0.27586  0.035674625
 C1 0.340785 0.10656 0.26278  -0.178525375
 C2 0.265631 0.087001 0.3223  0.035674625
 C1 0.249628 0.14449 0.39472  -0.178525375
 C2 0.307684 0.222597 0.40662  0.035674625
 C3 0.449323 0.321583 0.36260  0.707431291667
 C3 0.359545 0.042809 0.18785  0.707431291667
 C3 0.174217 0.121782 0.46141  0.707431291667
 C1 0.117238 0.757459 0.84751  -0.178525375
 C2 0.100337 0.815452 0.77555  0.035674625
 C1 0.159503 0.892459 0.76201  -0.178525375
 C2 0.234702 0.912447 0.82155  0.035674625
 C1 0.2507 0.855413 0.89437  -0.178525375
 C2 0.192796 0.777254 0.90659  0.035674625
 C3 0.05126 0.677883 0.86284  0.707431291667
 C3 0.14049 0.955488 0.68656  0.707431291667
 C3 0.326123 0.878431 0.96109  0.707431291667
 O1 0.568651 0.87179 0.06793  -0.584815375
 O1 0.47697 0.834882 0.18504  -0.584815375
 O1 0.562637 0.5547 0.35459  -0.584815375
 O1 0.701051 0.469258 0.32250  -0.584815375
 O1 0.882634 0.536011 0.0488  -0.584815375
 O1 0.849621 0.668357 0.97750  -0.584815375
 O1 0.931543 0.128122 0.5682  -0.584815375
 O1 0.023494 0.164718 0.68545  -0.584815375
 O1 0.937743 0.445205 0.85479  -0.584815375
 O1 0.799388 0.530654 0.82229  -0.584815375
 O1 0.6176 0.463765 0.54883  -0.584815375
 O1 0.650596 0.331554 0.47750  -0.584815375
 O1 0.427483 0.376758 0.42646  -0.584815375
 O1 0.524324 0.331642 0.31369  -0.584815375
 O1 0.436719 0.058106 0.14068  -0.584815375
 O1 0.300299 0.9774 0.17396  -0.584815375
 O1 0.125298 0.046665 0.45179  -0.584815375
 O1 0.160403 0.176148 0.52593  -0.584815375
 O1 0.07356 0.622428 0.9264  -0.584815375
 O1 0.975862 0.66807 0.81423  -0.584815375
 O1 0.062136 0.941206 0.64055  -0.584815375
 O1 0.200523 0.019876 0.67095  -0.584815375
 O1 0.374505 0.953849 0.95161  -0.584815375
 O1 0.340658 0.82401 0.02560  -0.584815375
