#======================================================================

# CRYSTAL DATA

#----------------------------------------------------------------------

data_VESTA_phase_1


_pd_phase_name                         MOF
_cell_length_a                         14.27700
_cell_length_b                         14.86400
_cell_length_c                         15.15200
_cell_angle_alpha                      90.01500
_cell_angle_beta                       90.48700
_cell_angle_gamma                      90.04100
_symmetry_space_group_name_H-M         "P 1"
_symmetry_Int_Tables_number            1

loop_
_symmetry_equiv_pos_as_xyz
   "x, y, z"

loop_
   _atom_site_label
   _atom_site_fract_x
   _atom_site_fract_y
   _atom_site_fract_z
 _atom_site_charge
 Zn1 0.181129 0.690694 0.79992  0.755593
 Zn1 0.05764 0.562676 0.9080  0.755593
 Zn1 0.316657 0.312038 0.30055  0.755593
 Zn1 0.440796 0.437535 0.41152  0.755593
 Zn1 0.818765 0.190645 0.70006  0.755593
 Zn1 0.942141 0.062665 0.59190  0.755593
 Zn1 0.683297 0.812125 0.19945  0.755593
 Zn1 0.559188 0.937509 0.08844  0.755593
 H1 0.90878 0.773197 0.  0.0983913333333
 H1 0.767747 0.018643 0.93682  0.0983913333333
 H1 0.0 0.923898 0.78408  0.0983913333333
 H1 0.59052 0.226842 0.51092  0.0983913333333
 H1 0.731803 0.982931 0.43571  0.0983913333333
 H1 0.496145 0.078294 0.28283  0.0983913333333
 H1 0.091046 0.273186 0.48994  0.0983913333333
 H1 0.232131 0.518869 0.56294  0.0983913333333
 H1 0.99882 0.423939 0.71580  0.0983913333333
 H1 0.409329 0.726647 0.98908  0.0983913333333
 H1 0.268058 0.482525 0.06416  0.0983913333333
 H1 0.503873 0.578101 0.21694  0.0983913333333
 C1 0.962489 0.841057 0.89507  -0.179552
 C2 0.901791 0.831169 0.96655  0.0400746666667
 C1 0.832118 0.895472 0.98198  -0.179552
 C2 0.822584 0.969324 0.92527  0.0400746666667
 C1 0.883494 0.979599 0.85403  -0.179552
 C2 0.953769 0.915748 0.83937  0.0400746666667
 C3 0.035504 0.771504 0.87805  0.705194666667
 C3 0.766866 0.885544 0.05768  0.705194666667
 C3 0.87347 0.056915 0.79271  0.705194666667
 C1 0.535601 0.15991 0.39513  -0.179552
 C2 0.597204 0.169351 0.46696  0.0400746666667
 C1 0.667488 0.105295 0.4819  -0.179552
 C2 0.676534 0.032085 0.42452  0.0400746666667
 C1 0.614777 0.022373 0.35288  -0.179552
 C2 0.544033 0.085995 0.33855  0.0400746666667
 C3 0.462153 0.229227 0.37836  0.705194666667
 C3 0.734161 0.115025 0.55764  0.705194666667
 C3 0.624723 0.946026 0.29059  0.705194666667
 C1 0.0374 0.341095 0.60480  -0.179552
 C2 0.098066 0.331206 0.53331  0.0400746666667
 C1 0.167749 0.395571 0.51785  -0.179552
 C2 0.177291 0.469492 0.57452  0.0400746666667
 C1 0.116409 0.479756 0.64577  -0.179552
 C2 0.046153 0.415825 0.66049  0.0400746666667
 C3 0.964409 0.271474 0.62188  0.705194666667
 C3 0.233062 0.385602 0.4422  0.705194666667
 C3 0.126508 0.557081 0.70709  0.705194666667
 C1 0.464355 0.65973 0.10475  -0.179552
 C2 0.402678 0.669124 0.03298  0.0400746666667
 C1 0.332369 0.604986 0.01801  -0.179552
 C2 0.323358 0.531732 0.07534  0.0400746666667
 C1 0.385184 0.522075 0.14693  -0.179552
 C2 0.45595 0.585777 0.16126  0.0400746666667
 C3 0.537806 0.729149 0.12157  0.705194666667
 C3 0.265575 0.614731 0.94238  0.705194666667
 C3 0.37523 0.445782 0.20925  0.705194666667
 O1 0.089766 0.785514 0.81147  -0.583918666667
 O1 0.041166 0.703646 0.92867  -0.583918666667
 O1 0.777589 0.815837 0.10745  -0.583918666667
 O1 0.704831 0.94551 0.0700  -0.583918666667
 O1 0.802299 0.109651 0.80109  -0.583918666667
 O1 0.93475 0.070276 0.73319  -0.583918666667
 O1 0.407291 0.215796 0.31128  -0.583918666667
 O1 0.456638 0.296527 0.42969  -0.583918666667
 O1 0.724314 0.184971 0.60713  -0.583918666667
 O1 0.796169 0.054883 0.56992  -0.583918666667
 O1 0.696237 0.893571 0.29991  -0.583918666667
 O1 0.56356 0.93355 0.22995  -0.583918666667
 O1 0.910229 0.28547 0.68851  -0.583918666667
 O1 0.958738 0.203561 0.57129  -0.583918666667
 O1 0.222353 0.315804 0.39251  -0.583918666667
 O1 0.295184 0.44557 0.4299  -0.583918666667
 O1 0.197672 0.609896 0.69864  -0.583918666667
 O1 0.065331 0.570336 0.76673  -0.583918666667
 O1 0.592624 0.715796 0.18869  -0.583918666667
 O1 0.543301 0.796465 0.07029  -0.583918666667
 O1 0.275614 0.68454 0.8927  -0.583918666667
 O1 0.203256 0.554745 0.93032  -0.583918666667
 O1 0.30372 0.393211 0.19996  -0.583918666667
 O1 0.436344 0.433517 0.26996  -0.583918666667
