#======================================================================

# CRYSTAL DATA

#----------------------------------------------------------------------

data_VESTA_phase_1


_pd_phase_name                         MOF
_cell_length_a                         15.09600
_cell_length_b                         16.33700
_cell_length_c                         16.33700
_cell_angle_alpha                      119.84900
_cell_angle_beta                       90.00100
_cell_angle_gamma                      90.00100
_symmetry_space_group_name_H-M         "P 1"
_symmetry_Int_Tables_number            1

loop_
_symmetry_equiv_pos_as_xyz
   "x, y, z"

loop_
   _atom_site_label
   _atom_site_fract_x
   _atom_site_fract_y
   _atom_site_fract_z
 _atom_site_charge
 Y1 0.067171 0.667034 0.33319  1.94187914894
 Y1 0.567156 0.667034 0.33319  1.94187914894
 Y1 0.317237 0.333031 0.66686  1.94187914894
 Y1 0.817222 0.333031 0.66686  1.94187914894
 Y1 0.317239 0.666869 0.33303  1.94187914894
 Y1 0.817224 0.66687 0.33303  1.94187914894
 Y1 0.067173 0.333191 0.66703  1.94187914894
 Y1 0.567158 0.333191 0.66703  1.94187914894
 H1 0.320636 0.853198 0.58058  0.0835469267139
 H1 0.82062 0.853198 0.58057  0.0835469267139
 H1 0.320826 0.727603 0.14549  0.0835469267139
 H1 0.820808 0.727598 0.14549  0.0835469267139
 H1 0.321032 0.418988 0.27249  0.0835469267139
 H1 0.821015 0.418992 0.27250  0.0835469267139
 H1 0.070429 0.146917 0.41946  0.0835469267139
 H1 0.570412 0.146917 0.41946  0.0835469267139
 H1 0.070522 0.272411 0.85461  0.0835469267139
 H1 0.570507 0.272411 0.85461  0.0835469267139
 H1 0.070798 0.581181 0.72767  0.0835469267139
 H1 0.570782 0.581181 0.72767  0.0835469267139
 H1 0.070807 0.727685 0.58119  0.0835469267139
 H1 0.570791 0.727686 0.58119  0.0835469267139
 H1 0.070437 0.419456 0.14692  0.0835469267139
 H1 0.570421 0.419457 0.14692  0.0835469267139
 H1 0.07053 0.854617 0.27240  0.0835469267139
 H1 0.570514 0.854617 0.27240  0.0835469267139
 H1 0.321039 0.272489 0.41897  0.0835469267139
 H1 0.821023 0.272491 0.41897  0.0835469267139
 H1 0.320643 0.580587 0.85319  0.0835469267139
 H1 0.820626 0.580584 0.85319  0.0835469267139
 H1 0.320832 0.145494 0.72760  0.0835469267139
 H1 0.820815 0.145494 0.72760  0.0835469267139
 H1 0.033689 4.2e-05 0.53284  0.0835469267139
 H1 0.533673 4.2e-05 0.53284  0.0835469267139
 H1 0.033688 0.532845 4.4e-0  0.0835469267139
 H1 0.533673 0.532845 4.4e-0  0.0835469267139
 H1 0.033551 0.467706 0.46770  0.0835469267139
 H1 0.533535 0.467707 0.46770  0.0835469267139
 H1 0.283321 0.999983 0.46729  0.0835469267139
 H1 0.783306 0.999983 0.4672  0.0835469267139
 H1 0.28332 0.46729 0.99998  0.0835469267139
 H1 0.783305 0.467289 0.99998  0.0835469267139
 H1 0.283263 0.532427 0.53242  0.0835469267139
 H1 0.783248 0.532429 0.53242  0.0835469267139
 C1 0.353665 0.918493 0.59507  0.27196748227
 C1 0.853651 0.918492 0.59507  0.27196748227
 C2 0.432314 0.914859 0.54762  -0.27799751773
 C2 0.932298 0.914859 0.54762  -0.27799751773
 C3 0.472396 0.824939 0.47480  0.82867248227
 C3 0.972381 0.824938 0.47480  0.82867248227
 C1 0.353753 0.676487 0.08040  0.27196748227
 C1 0.85374 0.67649 0.08040  0.27196748227
 C2 0.432363 0.632893 0.08456  -0.27799751773
 C2 0.932344 0.632886 0.08456  -0.27799751773
 C3 0.47245 0.650495 0.17479  0.82867248227
 C3 0.972435 0.650495 0.17479  0.82867248227
 C1 0.353939 0.40474 0.32359  0.27196748227
 C1 0.853922 0.404744 0.32359  0.27196748227
 C2 0.432409 0.452473 0.36742  -0.27799751773
 C2 0.932395 0.452472 0.36742  -0.27799751773
 C3 0.472499 0.525235 0.34990  0.82867248227
 C3 0.972484 0.525237 0.34990  0.82867248227
 C1 0.103441 0.081602 0.40492  0.27196748227
 C1 0.603425 0.081602 0.40492  0.27196748227
 C2 0.182012 0.085207 0.45247  -0.27799751773
 C2 0.681996 0.085207 0.45247  -0.27799751773
 C3 0.221953 0.175178 0.52537  0.82867248227
 C3 0.721937 0.175178 0.52537  0.82867248227
 C1 0.103475 0.3235 0.91970  0.27196748227
 C1 0.603457 0.323503 0.91970  0.27196748227
 C2 0.182008 0.367193 0.91551  -0.27799751773
 C2 0.681993 0.367191 0.91551  -0.27799751773
 C3 0.221907 0.349582 0.82520  0.82867248227
 C3 0.721892 0.349582 0.82520  0.82867248227
 C1 0.103708 0.595473 0.67660  0.27196748227
 C1 0.603689 0.595468 0.67660  0.27196748227
 C2 0.18213 0.547677 0.63271  -0.27799751773
 C2 0.682117 0.547682 0.63272  -0.27799751773
 C3 0.222012 0.474783 0.65016  0.82867248227
 C3 0.721996 0.474783 0.65016  0.82867248227
 C1 0.10371 0.676612 0.59547  0.27196748227
 C1 0.60369 0.676608 0.5954  0.27196748227
 C2 0.182124 0.632711 0.54766  -0.27799751773
 C2 0.682111 0.632715 0.54767  -0.27799751773
 C3 0.222017 0.650177 0.47479  0.82867248227
 C3 0.722001 0.650178 0.47479  0.82867248227
 C1 0.10344 0.404928 0.08160  0.27196748227
 C1 0.603422 0.404931 0.08160  0.27196748227
 C2 0.182006 0.452485 0.08520  -0.27799751773
 C2 0.681992 0.452482 0.08520  -0.27799751773
 C3 0.221957 0.525368 0.1751  0.82867248227
 C3 0.721941 0.525368 0.1751  0.82867248227
 C1 0.103477 0.919702 0.32349  0.27196748227
 C1 0.603462 0.919701 0.32349  0.27196748227
 C2 0.181998 0.91552 0.36720  -0.27799751773
 C2 0.681983 0.91552 0.36720  -0.27799751773
 C3 0.221912 0.825206 0.34957  0.82867248227
 C3 0.721897 0.825206 0.34957  0.82867248227
 C1 0.353941 0.323592 0.40473  0.27196748227
 C1 0.853923 0.323596 0.4047  0.27196748227
 C2 0.432403 0.367433 0.45247  -0.27799751773
 C2 0.932388 0.367433 0.45247  -0.27799751773
 C3 0.472503 0.349899 0.52522  0.82867248227
 C3 0.972488 0.349899 0.52522  0.82867248227
 C1 0.353662 0.595065 0.91848  0.27196748227
 C1 0.85365 0.595068 0.91848  0.27196748227
 C2 0.432312 0.547619 0.91485  -0.27799751773
 C2 0.932293 0.547613 0.91485  -0.27799751773
 C3 0.472399 0.474807 0.82493  0.82867248227
 C3 0.972385 0.474807 0.82493  0.82867248227
 C1 0.353759 0.080408 0.67649  0.27196748227
 C1 0.853745 0.080407 0.67649  0.27196748227
 C2 0.432353 0.08456 0.63287  -0.27799751773
 C2 0.932336 0.08456 0.63287  -0.27799751773
 C3 0.472455 0.174796 0.65050  0.82867248227
 C3 0.97244 0.174796 0.650  0.82867248227
 C4 0.472589 0.999834 0.5680  0.139995815603
 C4 0.972576 0.999834 0.56802  0.139995815603
 C4 0.472583 0.568013 0.99983  0.139995815603
 C4 0.972572 0.568018 0.99983  0.139995815603
 C4 0.472584 0.43231 0.43230  0.139995815603
 C4 0.972568 0.432313 0.43231  0.139995815603
 C4 0.222295 0.000216 0.43203  0.139995815603
 C4 0.72228 0.000216 0.43203  0.139995815603
 C4 0.222292 0.432041 0.00021  0.139995815603
 C4 0.722274 0.432044 0.00021  0.139995815603
 C4 0.22234 0.567862 0.56786  0.139995815603
 C4 0.72232 0.567858 0.56785  0.139995815603
 N1 0.31493 0.999311 0.65906  -0.444444184397
 N1 0.814913 0.999311 0.65906  -0.444444184397
 N1 0.314932 0.659071 0.99931  -0.444444184397
 N1 0.814912 0.659064 0.99931  -0.444444184397
 N1 0.315212 0.340777 0.34077  -0.444444184397
 N1 0.815196 0.340779 0.34077  -0.444444184397
 N1 0.064666 0.000797 0.34093  -0.444444184397
 N1 0.56465 0.000797 0.34093  -0.444444184397
 N1 0.064667 0.340936 0.00080  -0.444444184397
 N1 0.564652 0.340935 0.00080  -0.444444184397
 N1 0.064981 0.659439 0.65943  -0.444444184397
 N1 0.564967 0.659442 0.65944  -0.444444184397
 O1 0.432808 0.744762 0.44563  -0.750690851064
 O1 0.932793 0.744761 0.44563  -0.750690851064
 O2 0.047509 0.826901 0.44097  -0.692340851064
 O2 0.547493 0.826901 0.44097  -0.692340851064
 O1 0.432805 0.701627 0.25483  -0.750690851064
 O1 0.932789 0.701627 0.25483  -0.750690851064
 O2 0.047537 0.614828 0.1731  -0.692340851064
 O2 0.547521 0.614828 0.1731  -0.692340851064
 O1 0.432918 0.554343 0.29870  -0.750690851064
 O1 0.932903 0.554343 0.29870  -0.750690851064
 O2 0.047574 0.559132 0.38561  -0.692340851064
 O2 0.547558 0.559132 0.38561  -0.692340851064
 O1 0.182343 0.255264 0.55429  -0.750690851064
 O1 0.682327 0.255264 0.55429  -0.750690851064
 O2 0.296927 0.173299 0.55950  -0.692340851064
 O2 0.796911 0.173299 0.55950  -0.692340851064
 O1 0.182181 0.298321 0.74528  -0.750690851064
 O1 0.682166 0.298322 0.74528  -0.750690851064
 O2 0.296883 0.385402 0.82667  -0.692340851064
 O2 0.796867 0.385402 0.82667  -0.692340851064
 O1 0.182389 0.445931 0.70151  -0.750690851064
 O1 0.682373 0.445931 0.70151  -0.750690851064
 O2 0.296925 0.440542 0.61421  -0.692340851064
 O2 0.796909 0.440543 0.61421  -0.692340851064
 O1 0.18239 0.701518 0.44593  -0.750690851064
 O1 0.682374 0.701519 0.44593  -0.750690851064
 O2 0.296923 0.61421 0.44053  -0.692340851064
 O2 0.796907 0.61421 0.4405  -0.692340851064
 O1 0.182345 0.554295 0.25526  -0.750690851064
 O1 0.682329 0.554295 0.25526  -0.750690851064
 O2 0.296924 0.559515 0.17329  -0.692340851064
 O2 0.796908 0.559515 0.17329  -0.692340851064
 O1 0.182182 0.745292 0.29832  -0.750690851064
 O1 0.682167 0.745292 0.29832  -0.750690851064
 O2 0.29688 0.826683 0.38540  -0.692340851064
 O2 0.796865 0.826683 0.38540  -0.692340851064
 O1 0.432919 0.298706 0.55433  -0.750690851064
 O1 0.932904 0.298706 0.55433  -0.750690851064
 O2 0.047572 0.385618 0.55913  -0.692340851064
 O2 0.547557 0.385618 0.55913  -0.692340851064
 O1 0.432809 0.445634 0.74475  -0.750690851064
 O1 0.932794 0.445634 0.74475  -0.750690851064
 O2 0.047506 0.440971 0.82689  -0.692340851064
 O2 0.54749 0.440971 0.826  -0.692340851064
 O1 0.432806 0.254834 0.70162  -0.750690851064
 O1 0.932791 0.254834 0.70162  -0.750690851064
 O2 0.047535 0.173187 0.6148  -0.692340851064
 O2 0.547519 0.173187 0.6148  -0.692340851064
