#======================================================================

# CRYSTAL DATA

#----------------------------------------------------------------------

data_VESTA_phase_1


_pd_phase_name                         MOF
_cell_length_a                         20.21100
_cell_length_b                         23.02300
_cell_length_c                         14.94300
_cell_angle_alpha                      91.18600
_cell_angle_beta                       89.99700
_cell_angle_gamma                      89.94800
_symmetry_space_group_name_H-M         "P 1"
_symmetry_Int_Tables_number            1

loop_
_symmetry_equiv_pos_as_xyz
   "x, y, z"

loop_
   _atom_site_label
   _atom_site_fract_x
   _atom_site_fract_y
   _atom_site_fract_z
 _atom_site_charge
 Zn1 0.463919 0.377587 0.13166  1.08184518519
 Zn1 0.463921 0.877593 0.13166  1.08184518519
 Zn1 0.963907 0.377587 0.13166  1.08184518519
 Zn1 0.96391 0.877593 0.13166  1.08184518519
 Zn1 0.058604 0.370197 0.30875  1.08184518519
 Zn1 0.058606 0.870203 0.30875  1.08184518519
 Zn1 0.558592 0.370197 0.30875  1.08184518519
 Zn1 0.558595 0.870203 0.30875  1.08184518519
 Zn1 0.213917 0.372441 0.36836  1.08184518519
 Zn1 0.21392 0.872447 0.36836  1.08184518519
 Zn1 0.713905 0.372441 0.36836  1.08184518519
 Zn1 0.713908 0.872447 0.36836  1.08184518519
 Zn1 0.308584 0.379832 0.19124  1.08184518519
 Zn1 0.308587 0.879839 0.19124  1.08184518519
 Zn1 0.808573 0.379832 0.19124  1.08184518519
 Zn1 0.808575 0.879838 0.19124  1.08184518519
 Zn1 0.036069 0.122421 0.86834  1.08184518519
 Zn1 0.036072 0.622427 0.86834  1.08184518519
 Zn1 0.536058 0.122421 0.86834  1.08184518519
 Zn1 0.53606 0.622427 0.86834  1.08184518519
 Zn1 0.441384 0.129811 0.69125  1.08184518519
 Zn1 0.441387 0.629817 0.69125  1.08184518519
 Zn1 0.941373 0.129811 0.69125  1.08184518519
 Zn1 0.941375 0.629817 0.69125  1.08184518519
 Zn1 0.286071 0.127567 0.63164  1.08184518519
 Zn1 0.286074 0.627573 0.63164  1.08184518519
 Zn1 0.786059 0.127567 0.63164  1.08184518519
 Zn1 0.786062 0.627573 0.63164  1.08184518519
 Zn1 0.191404 0.120176 0.80876  1.08184518519
 Zn1 0.191406 0.620182 0.80876  1.08184518519
 Zn1 0.691392 0.120176 0.80876  1.08184518519
 Zn1 0.691395 0.620182 0.80876  1.08184518519
 Zn1 1e-06 0.250003 0.  1.08184518519
 Zn1 4e-06 0.750009 0.  1.08184518519
 Zn1 0.49999 0.250003 0.  1.08184518519
 Zn1 0.499992 0.750009 0.  1.08184518519
 Zn1 0.249993 1e-06 0.50000  1.08184518519
 Zn1 0.249995 0.500007 0.50000  1.08184518519
 Zn1 0.749981 1e-06 0.50000  1.08184518519
 Zn1 0.749984 0.500007 0.50000  1.08184518519
 Zn1 0.0 0.0 0.  1.08184518519
 Zn1 0.999979 0.500006 0.  1.08184518519
 Zn1 0.499988 0.0 0.  1.08184518519
 Zn1 0.499991 0.500006 0.  1.08184518519
 Zn1 0.249994 0.250004 0.50000  1.08184518519
 Zn1 0.249997 0.75001 0.50000  1.08184518519
 Zn1 0.749982 0.250004 0.50000  1.08184518519
 Zn1 0.749985 0.75001 0.50000  1.08184518519
 H1 0.378791 0.429239 0.37155  0.0100185185185
 H1 0.378793 0.929245 0.3715  0.0100185185185
 H1 0.878779 0.429238 0.3715  0.0100185185185
 H1 0.878781 0.929243 0.37156  0.0100185185185
 H1 0.028044 0.236538 0.26827  0.0100185185185
 H1 0.028051 0.736544 0.26827  0.0100185185185
 H1 0.528031 0.236538 0.26827  0.0100185185185
 H1 0.528034 0.736544 0.26827  0.0100185185185
 H1 0.304509 0.279999 0.04717  0.0100185185185
 H1 0.304512 0.780008 0.04717  0.0100185185185
 H1 0.804498 0.280003 0.04717  0.0100185185185
 H1 0.8045 0.780005 0.04717  0.0100185185185
 H1 0.105299 0.490428 0.23035  0.0100185185185
 H1 0.105301 0.990435 0.23035  0.0100185185185
 H1 0.605288 0.490428 0.23035  0.0100185185185
 H1 0.605291 0.990434 0.23035  0.0100185185185
 H1 0.080908 0.344084 0.92165  0.0100185185185
 H1 0.080912 0.84409 0.92165  0.0100185185185
 H1 0.580894 0.344084 0.92164  0.0100185185185
 H1 0.580899 0.84409 0.92165  0.0100185185185
 H1 0.354155 0.001226 0.01225  0.0100185185185
 H1 0.354158 0.501232 0.01225  0.0100185185185
 H1 0.854143 0.001225 0.01225  0.0100185185185
 H1 0.854146 0.501231 0.01225  0.0100185185185
 H1 0.128886 0.32077 0.1284  0.0100185185185
 H1 0.128889 0.820776 0.1284  0.0100185185185
 H1 0.628874 0.320772 0.12848  0.0100185185185
 H1 0.628877 0.820777 0.1284  0.0100185185185
 H1 0.277931 0.013449 0.2317  0.0100185185185
 H1 0.277935 0.513455 0.2317  0.0100185185185
 H1 0.777921 0.013448 0.2317  0.0100185185185
 H1 0.777925 0.513455 0.23171  0.0100185185185
 H1 0.054475 0.470233 0.45281  0.0100185185185
 H1 0.054478 0.970237 0.45281  0.0100185185185
 H1 0.554464 0.470231 0.45281  0.0100185185185
 H1 0.554467 0.970239 0.45281  0.0100185185185
 H1 0.355344 0.25949 0.26965  0.0100185185185
 H1 0.355347 0.759496 0.26965  0.0100185185185
 H1 0.855332 0.25949 0.26965  0.0100185185185
 H1 0.855336 0.759497 0.26965  0.0100185185185
 H1 0.330923 0.405833 0.57829  0.0100185185185
 H1 0.330926 0.905839 0.57829  0.0100185185185
 H1 0.830912 0.405833 0.57829  0.0100185185185
 H1 0.830914 0.905839 0.57829  0.0100185185185
 H1 0.10427 0.24888 0.48785  0.0100185185185
 H1 0.104272 0.748886 0.48785  0.0100185185185
 H1 0.604258 0.24888 0.48785  0.0100185185185
 H1 0.604261 0.748886 0.48785  0.0100185185185
 H1 0.121197 0.070769 0.62845  0.0100185185185
 H1 0.1212 0.570777 0.62845  0.0100185185185
 H1 0.621186 0.070773 0.62845  0.0100185185185
 H1 0.621189 0.570778 0.62845  0.0100185185185
 H1 0.471942 0.26347 0.73173  0.0100185185185
 H1 0.471946 0.763477 0.73173  0.0100185185185
 H1 0.971936 0.263471 0.73173  0.0100185185185
 H1 0.971933 0.763477 0.73173  0.0100185185185
 H1 0.195479 0.220007 0.95283  0.0100185185185
 H1 0.195481 0.720011 0.95283  0.0100185185185
 H1 0.695467 0.220007 0.95283  0.0100185185185
 H1 0.69547 0.720013 0.95283  0.0100185185185
 H1 0.394691 0.009579 0.76965  0.0100185185185
 H1 0.394692 0.509585 0.76965  0.0100185185185
 H1 0.894677 0.00958 0.76965  0.0100185185185
 H1 0.89468 0.509586 0.76965  0.0100185185185
 H1 0.419078 0.155924 0.07835  0.0100185185185
 H1 0.419081 0.65593 0.0783  0.0100185185185
 H1 0.91907 0.155924 0.07836  0.0100185185185
 H1 0.919072 0.65593 0.07836  0.0100185185185
 H1 0.145833 0.498783 0.98775  0.0100185185185
 H1 0.145836 0.998789 0.98775  0.0100185185185
 H1 0.645821 0.498783 0.98775  0.0100185185185
 H1 0.645824 0.998789 0.98775  0.0100185185185
 H1 0.371102 0.179238 0.87152  0.0100185185185
 H1 0.371104 0.679245 0.87152  0.0100185185185
 H1 0.87109 0.179239 0.87152  0.0100185185185
 H1 0.871093 0.679244 0.87152  0.0100185185185
 H1 0.222055 0.48656 0.76830  0.0100185185185
 H1 0.222061 0.986565 0.76830  0.0100185185185
 H1 0.722044 0.48656 0.76830  0.0100185185185
 H1 0.722048 0.986566 0.76830  0.0100185185185
 H1 0.445513 0.029779 0.54719  0.0100185185185
 H1 0.445515 0.529784 0.54719  0.0100185185185
 H1 0.945501 0.029775 0.54719  0.0100185185185
 H1 0.945504 0.529783 0.54719  0.0100185185185
 H1 0.144644 0.240518 0.73035  0.0100185185185
 H1 0.144646 0.740524 0.73035  0.0100185185185
 H1 0.644631 0.240517 0.73035  0.0100185185185
 H1 0.644634 0.740523 0.73035  0.0100185185185
 H1 0.169064 0.094176 0.42171  0.0100185185185
 H1 0.169069 0.594182 0.42171  0.0100185185185
 H1 0.669055 0.094176 0.42171  0.0100185185185
 H1 0.669057 0.594182 0.42171  0.0100185185185
 H1 0.395718 0.251128 0.5121  0.0100185185185
 H1 0.395721 0.751135 0.5121  0.0100185185185
 H1 0.895707 0.251129 0.51216  0.0100185185185
 H1 0.895709 0.751135 0.51216  0.0100185185185
 C1 0.419339 0.413075 0.32828  0.678726851852
 C1 0.419342 0.913082 0.32828  0.678726851852
 C1 0.919327 0.413075 0.32828  0.678726851852
 C1 0.91933 0.913081 0.32828  0.678726851852
 C1 0.013503 0.259337 0.20690  0.678726851852
 C1 0.013507 0.759343 0.20690  0.678726851852
 C1 0.51349 0.259337 0.20690  0.678726851852
 C1 0.513493 0.759343 0.20690  0.678726851852
 C1 0.358345 0.287537 0.0535  0.678726851852
 C1 0.358347 0.787545 0.05354  0.678726851852
 C1 0.858333 0.28754 0.05354  0.678726851852
 C1 0.858336 0.787543 0.0535  0.678726851852
 C1 0.068604 0.475856 0.17967  0.678726851852
 C1 0.068607 0.975862 0.17967  0.678726851852
 C1 0.568592 0.475856 0.17967  0.678726851852
 C1 0.568595 0.975862 0.17967  0.678726851852
 C1 0.050521 0.371454 0.96703  0.678726851852
 C1 0.050524 0.87146 0.96703  0.678726851852
 C1 0.550508 0.371454 0.96703  0.678726851852
 C1 0.550512 0.87146 0.96703  0.678726851852
 C1 0.363185 0.464911 0.05758  0.678726851852
 C1 0.363188 0.964918 0.05758  0.678726851852
 C1 0.863174 0.464911 0.05758  0.678726851852
 C1 0.863176 0.964917 0.05758  0.678726851852
 C1 0.169403 0.336947 0.1717  0.678726851852
 C1 0.169406 0.836953 0.1717  0.678726851852
 C1 0.669391 0.336947 0.1717  0.678726851852
 C1 0.669394 0.836953 0.1717  0.678726851852
 C1 0.263433 0.490673 0.29309  0.678726851852
 C1 0.263435 0.990679 0.29309  0.678726851852
 C1 0.763422 0.490673 0.293  0.678726851852
 C1 0.763424 0.990679 0.29309  0.678726851852
 C1 0.108315 0.462627 0.44642  0.678726851852
 C1 0.108318 0.962632 0.44642  0.678726851852
 C1 0.608304 0.462626 0.44642  0.678726851852
 C1 0.608307 0.962633 0.44642  0.678726851852
 C1 0.318632 0.274114 0.32032  0.678726851852
 C1 0.318634 0.77412 0.32032  0.678726851852
 C1 0.81862 0.274113 0.32032  0.678726851852
 C1 0.818623 0.77412 0.32032  0.678726851852
 C1 0.300516 0.378507 0.53294  0.678726851852
 C1 0.300519 0.878513 0.53294  0.678726851852
 C1 0.800505 0.378507 0.53294  0.678726851852
 C1 0.800507 0.878513 0.53294  0.678726851852
 C1 0.113244 0.285167 0.44247  0.678726851852
 C1 0.113247 0.785173 0.44247  0.678726851852
 C1 0.613232 0.285167 0.44247  0.678726851852
 C1 0.613235 0.785173 0.44247  0.678726851852
 C1 0.080649 0.086933 0.67172  0.678726851852
 C1 0.080652 0.586939 0.67172  0.678726851852
 C1 0.580637 0.086934 0.67172  0.678726851852
 C1 0.58064 0.586939 0.67172  0.678726851852
 C1 0.486484 0.240671 0.79310  0.678726851852
 C1 0.486488 0.740677 0.79310  0.678726851852
 C1 0.986475 0.240671 0.79310  0.678726851852
 C1 0.986476 0.740677 0.7931  0.678726851852
 C1 0.141643 0.21247 0.94646  0.678726851852
 C1 0.141646 0.712475 0.94646  0.678726851852
 C1 0.641631 0.21247 0.94646  0.678726851852
 C1 0.641634 0.712475 0.94646  0.678726851852
 C1 0.431384 0.024152 0.82033  0.678726851852
 C1 0.431386 0.524158 0.82033  0.678726851852
 C1 0.931372 0.024153 0.82033  0.678726851852
 C1 0.931375 0.524158 0.82033  0.678726851852
 C1 0.449466 0.128554 0.03297  0.678726851852
 C1 0.449469 0.62856 0.03297  0.678726851852
 C1 0.949456 0.128554 0.03297  0.678726851852
 C1 0.949458 0.62856 0.03297  0.678726851852
 C1 0.136803 0.035097 0.94242  0.678726851852
 C1 0.136806 0.535103 0.94242  0.678726851852
 C1 0.636791 0.035097 0.94242  0.678726851852
 C1 0.636794 0.535103 0.94242  0.678726851852
 C1 0.330585 0.163062 0.82827  0.678726851852
 C1 0.330587 0.663068 0.82827  0.678726851852
 C1 0.830573 0.163062 0.82827  0.678726851852
 C1 0.830576 0.663068 0.82827  0.678726851852
 C1 0.236556 0.009335 0.70691  0.678726851852
 C1 0.236557 0.509341 0.70691  0.678726851852
 C1 0.736544 0.009335 0.70691  0.678726851852
 C1 0.736546 0.509341 0.70691  0.678726851852
 C1 0.391672 0.037384 0.55358  0.678726851852
 C1 0.391675 0.537389 0.55358  0.678726851852
 C1 0.891661 0.037381 0.55358  0.678726851852
 C1 0.891664 0.537388 0.55358  0.678726851852
 C1 0.181356 0.225895 0.67968  0.678726851852
 C1 0.181359 0.725901 0.67968  0.678726851852
 C1 0.681344 0.225895 0.67968  0.678726851852
 C1 0.681347 0.725901 0.67968  0.678726851852
 C1 0.199471 0.121501 0.46706  0.678726851852
 C1 0.199475 0.621507 0.46706  0.678726851852
 C1 0.699461 0.121501 0.46706  0.678726851852
 C1 0.699463 0.621507 0.46706  0.678726851852
 C1 0.386744 0.214842 0.55754  0.678726851852
 C1 0.386747 0.714848 0.55754  0.678726851852
 C1 0.886732 0.214842 0.55754  0.678726851852
 C1 0.886735 0.714848 0.55754  0.678726851852
 O1 0.404794 0.402095 0.24605  -0.647838148148
 O1 0.404797 0.902102 0.24605  -0.647838148148
 O1 0.904783 0.402095 0.24605  -0.647838148148
 O1 0.904785 0.902101 0.24605  -0.647838148148
 O2 0.475301 0.407701 0.36406  -0.581829814815
 O2 0.475304 0.907706 0.36406  -0.581829814815
 O2 0.975289 0.4077 0.36406  -0.581829814815
 O2 0.975292 0.907706 0.36406  -0.581829814815
 O1 0.009051 0.314998 0.21486  -0.647838148148
 O1 0.009054 0.815004 0.21486  -0.647838148148
 O1 0.509039 0.314998 0.21486  -0.647838148148
 O1 0.509042 0.815004 0.21486  -0.647838148148
 O2 0.002797 0.229691 0.1373  -0.581829814815
 O2 0.002801 0.729697 0.1373  -0.581829814815
 O2 0.502786 0.229691 0.1373  -0.581829814815
 O2 0.502788 0.729697 0.1373  -0.581829814815
 O1 0.375464 0.325669 0.11352  -0.647838148148
 O1 0.375467 0.825676 0.1135  -0.647838148148
 O1 0.875452 0.32567 0.1135  -0.647838148148
 O1 0.875455 0.825675 0.1135  -0.647838148148
 O2 0.396221 0.258595 0.00342  -0.581829814815
 O2 0.396224 0.758605 0.00342  -0.581829814815
 O2 0.89621 0.258599 0.00342  -0.581829814815
 O2 0.896212 0.758602 0.00342  -0.581829814815
 O1 0.044251 0.425011 0.19147  -0.647838148148
 O1 0.044254 0.925017 0.19147  -0.647838148148
 O1 0.544239 0.425011 0.19147  -0.647838148148
 O1 0.544242 0.925017 0.19147  -0.647838148148
 O2 0.055548 0.009811 0.11778  -0.581829814815
 O2 0.055551 0.509817 0.11778  -0.581829814815
 O2 0.555537 0.009811 0.11778  -0.581829814815
 O2 0.55554 0.509817 0.11778  -0.581829814815
 O1 0.013829 0.343084 0.02203  -0.647838148148
 O1 0.013832 0.843089 0.02203  -0.647838148148
 O1 0.513817 0.343084 0.0220  -0.647838148148
 O1 0.51382 0.84309 0.02203  -0.647838148148
 O2 0.055169 0.425308 0.96141  -0.581829814815
 O2 0.055171 0.925313 0.96141  -0.581829814815
 O2 0.555157 0.425308 0.96141  -0.581829814815
 O2 0.55516 0.925314 0.96141  -0.581829814815
 O1 0.423844 0.44803 0.06323  -0.647838148148
 O1 0.423846 0.948036 0.06323  -0.647838148148
 O1 0.923832 0.44803 0.06323  -0.647838148148
 O1 0.923835 0.948036 0.06323  -0.647838148148
 O2 0.3142 0.444637 0.09798  -0.581829814815
 O2 0.314203 0.944643 0.09798  -0.581829814815
 O2 0.814189 0.444637 0.09798  -0.581829814815
 O2 0.814191 0.944643 0.09798  -0.581829814815
 O1 0.154847 0.34792 0.25397  -0.647838148148
 O1 0.15485 0.847926 0.25397  -0.647838148148
 O1 0.654835 0.347921 0.25397  -0.647838148148
 O1 0.654838 0.847927 0.25397  -0.647838148148
 O2 0.225346 0.342339 0.13594  -0.581829814815
 O2 0.225349 0.842345 0.13594  -0.581829814815
 O2 0.725335 0.342339 0.13594  -0.581829814815
 O2 0.725337 0.842345 0.13594  -0.581829814815
 O1 0.258928 0.435025 0.28512  -0.647838148148
 O1 0.258931 0.935031 0.28512  -0.647838148148
 O1 0.758916 0.435025 0.28512  -0.647838148148
 O1 0.758919 0.935031 0.28512  -0.647838148148
 O2 0.252813 0.020325 0.36266  -0.581829814815
 O2 0.252816 0.520331 0.36266  -0.581829814815
 O2 0.752802 0.020325 0.36266  -0.581829814815
 O2 0.752805 0.520331 0.36266  -0.581829814815
 O1 0.125429 0.424409 0.38652  -0.647838148148
 O1 0.125431 0.924415 0.38652  -0.647838148148
 O1 0.625417 0.424408 0.38652  -0.647838148148
 O1 0.62542 0.924415 0.38652  -0.647838148148
 O2 0.146183 0.491593 0.49644  -0.581829814815
 O2 0.146186 0.991598 0.49644  -0.581829814815
 O2 0.646171 0.491592 0.49644  -0.581829814815
 O2 0.646174 0.991599 0.49644  -0.581829814815
 O1 0.294273 0.324996 0.3085  -0.647838148148
 O1 0.294276 0.825002 0.3085  -0.647838148148
 O1 0.794261 0.324996 0.3085  -0.647838148148
 O1 0.794264 0.825002 0.3085  -0.647838148148
 O2 0.305558 0.240166 0.38220  -0.581829814815
 O2 0.305561 0.740172 0.38220  -0.581829814815
 O2 0.805547 0.240166 0.38220  -0.581829814815
 O2 0.805549 0.740172 0.38220  -0.581829814815
 O1 0.263825 0.406928 0.4779  -0.647838148148
 O1 0.263828 0.906934 0.4779  -0.647838148148
 O1 0.763814 0.406928 0.47792  -0.647838148148
 O1 0.763816 0.906934 0.4779  -0.647838148148
 O2 0.305136 0.324649 0.53860  -0.581829814815
 O2 0.305139 0.824655 0.53860  -0.581829814815
 O2 0.805125 0.324649 0.53860  -0.581829814815
 O2 0.805128 0.824655 0.53860  -0.581829814815
 O1 0.173873 0.302031 0.43680  -0.647838148148
 O1 0.173876 0.802037 0.43680  -0.647838148148
 O1 0.673861 0.302031 0.43680  -0.647838148148
 O1 0.673864 0.802037 0.43680  -0.647838148148
 O2 0.064235 0.30542 0.40201  -0.581829814815
 O2 0.064238 0.805426 0.40201  -0.581829814815
 O2 0.564224 0.30542 0.40201  -0.581829814815
 O2 0.564226 0.805426 0.40201  -0.581829814815
 O1 0.095193 0.097913 0.75395  -0.647838148148
 O1 0.095196 0.597919 0.75395  -0.647838148148
 O1 0.595182 0.097913 0.75395  -0.647838148148
 O1 0.595185 0.597919 0.75395  -0.647838148148
 O2 0.024687 0.092308 0.6359  -0.581829814815
 O2 0.02469 0.592314 0.63594  -0.581829814815
 O2 0.524675 0.092308 0.63594  -0.581829814815
 O2 0.524678 0.592314 0.63594  -0.581829814815
 O1 0.490937 0.185011 0.78515  -0.647838148148
 O1 0.490939 0.685017 0.78515  -0.647838148148
 O1 0.990925 0.185011 0.78515  -0.647838148148
 O1 0.990928 0.685017 0.78515  -0.647838148148
 O2 0.49719 0.270317 0.86264  -0.581829814815
 O2 0.497193 0.770324 0.86264  -0.581829814815
 O2 0.997179 0.270317 0.86264  -0.581829814815
 O2 0.997181 0.770324 0.86264  -0.581829814815
 O1 0.124524 0.174339 0.88648  -0.647838148148
 O1 0.124527 0.674344 0.88648  -0.647838148148
 O1 0.624512 0.174338 0.88648  -0.647838148148
 O1 0.624515 0.674344 0.88648  -0.647838148148
 O2 0.103767 0.241411 0.99659  -0.581829814815
 O2 0.103769 0.741415 0.99659  -0.581829814815
 O2 0.603755 0.241411 0.9965  -0.581829814815
 O2 0.603758 0.741416 0.99659  -0.581829814815
 O1 0.455737 0.074997 0.80853  -0.647838148148
 O1 0.45574 0.575003 0.80853  -0.647838148148
 O1 0.955725 0.074997 0.80853  -0.647838148148
 O1 0.955728 0.575003 0.80853  -0.647838148148
 O2 0.444439 0.490197 0.88223  -0.581829814815
 O2 0.444442 0.990203 0.88223  -0.581829814815
 O2 0.944428 0.490197 0.88223  -0.581829814815
 O2 0.944431 0.990203 0.88223  -0.581829814815
 O1 0.486159 0.156925 0.97798  -0.647838148148
 O1 0.486161 0.656931 0.97798  -0.647838148148
 O1 0.986147 0.156925 0.97798  -0.647838148148
 O1 0.98615 0.656931 0.97798  -0.647838148148
 O2 0.444819 0.074701 0.03859  -0.581829814815
 O2 0.444822 0.574707 0.03859  -0.581829814815
 O2 0.944808 0.074701 0.03859  -0.581829814815
 O2 0.944811 0.574707 0.03859  -0.581829814815
 O1 0.076144 0.051978 0.93677  -0.647838148148
 O1 0.076147 0.551984 0.93677  -0.647838148148
 O1 0.576132 0.051978 0.93677  -0.647838148148
 O1 0.576135 0.551984 0.93677  -0.647838148148
 O2 0.185788 0.055371 0.90202  -0.581829814815
 O2 0.185791 0.555377 0.90202  -0.581829814815
 O2 0.685776 0.055371 0.90202  -0.581829814815
 O2 0.685779 0.555377 0.90202  -0.581829814815
 O1 0.345141 0.152088 0.74603  -0.647838148148
 O1 0.345144 0.652094 0.74603  -0.647838148148
 O1 0.845129 0.152088 0.74603  -0.647838148148
 O1 0.845132 0.652094 0.74603  -0.647838148148
 O2 0.274641 0.157669 0.86407  -0.581829814815
 O2 0.274644 0.657676 0.86407  -0.581829814815
 O2 0.77463 0.15767 0.8640  -0.581829814815
 O2 0.774633 0.657675 0.86407  -0.581829814815
 O1 0.24106 0.064984 0.71488  -0.647838148148
 O1 0.241063 0.56499 0.71488  -0.647838148148
 O1 0.741048 0.064984 0.71488  -0.647838148148
 O1 0.741051 0.56499 0.71488  -0.647838148148
 O2 0.247174 0.479683 0.63734  -0.581829814815
 O2 0.247178 0.979689 0.63734  -0.581829814815
 O2 0.747163 0.479683 0.63734  -0.581829814815
 O2 0.747166 0.979689 0.63734  -0.581829814815
 O1 0.374559 0.0756 0.61349  -0.647838148148
 O1 0.374562 0.575606 0.61349  -0.647838148148
 O1 0.874548 0.075599 0.61349  -0.647838148148
 O1 0.87455 0.575606 0.61349  -0.647838148148
 O2 0.353805 0.008417 0.50356  -0.581829814815
 O2 0.353808 0.508422 0.50356  -0.581829814815
 O2 0.853793 0.008415 0.50356  -0.581829814815
 O2 0.853796 0.508422 0.50356  -0.581829814815
 O1 0.205715 0.175013 0.69148  -0.647838148148
 O1 0.205718 0.675019 0.69148  -0.647838148148
 O1 0.705703 0.175013 0.69148  -0.647838148148
 O1 0.705706 0.675019 0.69148  -0.647838148148
 O2 0.19443 0.259842 0.61780  -0.581829814815
 O2 0.194432 0.759848 0.61780  -0.581829814815
 O2 0.694418 0.259842 0.61780  -0.581829814815
 O2 0.694421 0.759848 0.61780  -0.581829814815
 O1 0.236162 0.093081 0.52208  -0.647838148148
 O1 0.236166 0.593087 0.52208  -0.647838148148
 O1 0.736151 0.093081 0.52208  -0.647838148148
 O1 0.736154 0.593087 0.52208  -0.647838148148
 O2 0.194851 0.17536 0.46140  -0.581829814815
 O2 0.194854 0.675366 0.46140  -0.581829814815
 O2 0.69484 0.17536 0.46140  -0.581829814815
 O2 0.694842 0.675366 0.46140  -0.581829814815
 O1 0.326115 0.197977 0.56320  -0.647838148148
 O1 0.326118 0.697983 0.56320  -0.647838148148
 O1 0.826104 0.197977 0.56320  -0.647838148148
 O1 0.826106 0.697983 0.56320  -0.647838148148
 O2 0.435752 0.194588 0.59799  -0.581829814815
 O2 0.435755 0.694594 0.59799  -0.581829814815
 O2 0.935741 0.194588 0.59799  -0.581829814815
 O2 0.935744 0.694594 0.59799  -0.581829814815
