#======================================================================

# CRYSTAL DATA

#----------------------------------------------------------------------

data_VESTA_phase_1


_pd_phase_name                         MOF
_cell_length_a                         20.19600
_cell_length_b                         23.10100
_cell_length_c                         14.88000
_cell_angle_alpha                      91.16100
_cell_angle_beta                       90.00000
_cell_angle_gamma                      89.95800
_symmetry_space_group_name_H-M         "P 1"
_symmetry_Int_Tables_number            1

loop_
_symmetry_equiv_pos_as_xyz
   "x, y, z"

loop_
   _atom_site_label
   _atom_site_fract_x
   _atom_site_fract_y
   _atom_site_fract_z
 _atom_site_charge
 Zn1 0.463991 0.37747 0.1296  1.07879888889
 Zn1 0.463996 0.877467 0.1296  1.07879888889
 Zn1 0.963995 0.37747 0.1296  1.07879888889
 Zn1 0.963999 0.877467 0.1296  1.07879888889
 Zn1 0.058621 0.370231 0.308  1.07879888889
 Zn1 0.058625 0.870227 0.308  1.07879888889
 Zn1 0.558624 0.370231 0.308  1.07879888889
 Zn1 0.558629 0.870227 0.308  1.07879888889
 Zn1 0.213987 0.372545 0.37035  1.07879888889
 Zn1 0.213992 0.872541 0.37035  1.07879888889
 Zn1 0.713991 0.372545 0.37035  1.07879888889
 Zn1 0.713995 0.872541 0.37035  1.07879888889
 Zn1 0.308615 0.379792 0.19126  1.07879888889
 Zn1 0.308619 0.879788 0.19126  1.07879888889
 Zn1 0.808618 0.379792 0.19126  1.07879888889
 Zn1 0.808623 0.879788 0.19126  1.07879888889
 Zn1 0.036017 0.122522 0.87035  1.07879888889
 Zn1 0.036021 0.622518 0.87035  1.07879888889
 Zn1 0.53602 0.122522 0.87035  1.07879888889
 Zn1 0.536025 0.622518 0.87035  1.07879888889
 Zn1 0.441388 0.129762 0.69128  1.07879888889
 Zn1 0.441392 0.629758 0.69128  1.07879888889
 Zn1 0.941391 0.129762 0.69128  1.07879888889
 Zn1 0.941396 0.629758 0.69128  1.07879888889
 Zn1 0.286021 0.127448 0.62962  1.07879888889
 Zn1 0.286025 0.627444 0.62962  1.07879888889
 Zn1 0.786025 0.127448 0.62962  1.07879888889
 Zn1 0.786029 0.627444 0.62962  1.07879888889
 Zn1 0.191393 0.120201 0.80871  1.07879888889
 Zn1 0.191398 0.620197 0.80871  1.07879888889
 Zn1 0.691397 0.120201 0.80871  1.07879888889
 Zn1 0.691402 0.620197 0.80871  1.07879888889
 Zn1 2e-06 0.249998 0.  1.07879888889
 Zn1 7e-06 0.749995 0.  1.07879888889
 Zn1 0.500006 0.249998 0.  1.07879888889
 Zn1 0.50001 0.749995 0.  1.07879888889
 Zn1 0.250002 0.999998 0.49999  1.07879888889
 Zn1 0.250006 0.499994 0.49999  1.07879888889
 Zn1 0.750006 0.999998 0.49999  1.07879888889
 Zn1 0.75001 0.499994 0.49999  1.07879888889
 Zn1 0.0 0.0 0.  1.07879888889
 Zn1 0.0 0.499996 0.  1.07879888889
 Zn1 0.500004 0.0 0.  1.07879888889
 Zn1 0.500008 0.499996 0.  1.07879888889
 Zn1 0.250004 0.249996 0.49999  1.07879888889
 Zn1 0.250009 0.749993 0.49999  1.07879888889
 Zn1 0.750008 0.249996 0.49999  1.07879888889
 Zn1 0.750012 0.749993 0.49999  1.07879888889
 H1 0.378729 0.428818 0.37158  0.00911555555556
 H1 0.378733 0.928814 0.37158  0.00911555555556
 H1 0.878733 0.428818 0.37158  0.00911555555556
 H1 0.878737 0.928814 0.37158  0.00911555555556
 H1 0.025155 0.237134 0.26998  0.00911555555556
 H1 0.025159 0.73713 0.26998  0.00911555555556
 H1 0.525158 0.237134 0.26998  0.00911555555556
 H1 0.525162 0.73713 0.26998  0.00911555555556
 H1 0.304644 0.281081 0.04446  0.00911555555556
 H1 0.304649 0.781077 0.04446  0.00911555555556
 H1 0.804648 0.28108 0.04446  0.00911555555556
 H1 0.804652 0.781077 0.04446  0.00911555555556
 H1 0.104491 0.490232 0.23166  0.00911555555556
 H1 0.104495 0.990228 0.23166  0.00911555555556
 H1 0.604494 0.490232 0.23166  0.00911555555556
 H1 0.604499 0.990228 0.23166  0.00911555555556
 H1 0.081563 0.344658 0.92001  0.00911555555556
 H1 0.081567 0.844655 0.92001  0.00911555555556
 H1 0.581567 0.344658 0.92001  0.00911555555556
 H1 0.581571 0.844655 0.92001  0.00911555555556
 H1 0.354201 0.501651 0.01268  0.00911555555556
 H1 0.354206 0.0 0.01268  0.00911555555556
 H1 0.854205 0.501651 0.01268  0.00911555555556
 H1 0.854209 0.0 0.01268  0.00911555555556
 H1 0.1288 0.321183 0.12842  0.00911555555556
 H1 0.128804 0.82118 0.12842  0.00911555555556
 H1 0.628804 0.321183 0.12842  0.00911555555556
 H1 0.628808 0.82118 0.12842  0.00911555555556
 H1 0.275013 0.012892 0.23001  0.00911555555556
 H1 0.275017 0.512888 0.23001  0.00911555555556
 H1 0.775016 0.012892 0.23001  0.00911555555556
 H1 0.775021 0.512888 0.23001  0.00911555555556
 H1 0.054627 0.469247 0.45520  0.00911555555556
 H1 0.054632 0.969244 0.45520  0.00911555555556
 H1 0.554631 0.469247 0.45520  0.00911555555556
 H1 0.554635 0.969244 0.45520  0.00911555555556
 H1 0.354503 0.25969 0.26827  0.00911555555556
 H1 0.354507 0.759686 0.26827  0.00911555555556
 H1 0.854507 0.25969 0.26827  0.00911555555556
 H1 0.854511 0.759686 0.26827  0.00911555555556
 H1 0.331653 0.405246 0.57981  0.00911555555556
 H1 0.331657 0.905243 0.57981  0.00911555555556
 H1 0.831657 0.405246 0.57981  0.00911555555556
 H1 0.831661 0.905243 0.57981  0.00911555555556
 H1 0.10425 0.248552 0.48758  0.00911555555556
 H1 0.104254 0.748549 0.48758  0.00911555555556
 H1 0.604254 0.248552 0.48758  0.00911555555556
 H1 0.604258 0.748549 0.48758  0.00911555555556
 H1 0.121279 0.071174 0.62839  0.00911555555556
 H1 0.121284 0.571171 0.62839  0.00911555555556
 H1 0.621283 0.071174 0.62839  0.00911555555556
 H1 0.621287 0.571171 0.62839  0.00911555555556
 H1 0.474854 0.262859 0.72999  0.00911555555556
 H1 0.474858 0.762855 0.72999  0.00911555555556
 H1 0.974856 0.262859 0.72999  0.00911555555556
 H1 0.974861 0.762855 0.72999  0.00911555555556
 H1 0.195364 0.218913 0.95551  0.00911555555556
 H1 0.195368 0.718909 0.9555  0.00911555555556
 H1 0.695368 0.218912 0.9555  0.00911555555556
 H1 0.695372 0.718909 0.9555  0.00911555555556
 H1 0.395516 0.009761 0.76831  0.00911555555556
 H1 0.395521 0.509757 0.76831  0.00911555555556
 H1 0.895521 0.009761 0.76831  0.00911555555556
 H1 0.895525 0.509757 0.76831  0.00911555555556
 H1 0.418445 0.155334 0.0799  0.00911555555556
 H1 0.418449 0.655331 0.0799  0.00911555555556
 H1 0.918448 0.155334 0.0799  0.00911555555556
 H1 0.918453 0.655331 0.0799  0.00911555555556
 H1 0.145807 0.998341 0.98729  0.00911555555556
 H1 0.145811 0.498337 0.98729  0.00911555555556
 H1 0.64581 0.998341 0.98729  0.00911555555556
 H1 0.645815 0.498337 0.98729  0.00911555555556
 H1 0.371208 0.178809 0.87155  0.00911555555556
 H1 0.371212 0.678806 0.87155  0.00911555555556
 H1 0.871212 0.178809 0.87155  0.00911555555556
 H1 0.871216 0.678806 0.87155  0.00911555555556
 H1 0.224995 0.487101 0.76996  0.00911555555556
 H1 0.224999 0.987097 0.76996  0.00911555555556
 H1 0.724998 0.487101 0.76996  0.00911555555556
 H1 0.725003 0.987097 0.76996  0.00911555555556
 H1 0.445381 0.030745 0.54477  0.00911555555556
 H1 0.445385 0.530742 0.54477  0.00911555555556
 H1 0.945385 0.030746 0.54477  0.00911555555556
 H1 0.945389 0.530741 0.54477  0.00911555555556
 H1 0.145504 0.240302 0.73170  0.00911555555556
 H1 0.145509 0.740298 0.73170  0.00911555555556
 H1 0.645508 0.240302 0.73170  0.00911555555556
 H1 0.645512 0.740298 0.73170  0.00911555555556
 H1 0.168355 0.094746 0.42016  0.00911555555556
 H1 0.16836 0.594742 0.42016  0.00911555555556
 H1 0.668359 0.094746 0.42016  0.00911555555556
 H1 0.668364 0.594742 0.42016  0.00911555555556
 H1 0.395758 0.25144 0.51239  0.00911555555556
 H1 0.395763 0.751436 0.51239  0.00911555555556
 H1 0.895762 0.25144 0.51239  0.00911555555556
 H1 0.895766 0.751436 0.51239  0.00911555555556
 C1 0.419391 0.412698 0.32831  0.680085555556
 C1 0.419395 0.912695 0.32831  0.680085555556
 C1 0.919395 0.412698 0.32831  0.680085555556
 C1 0.919399 0.912695 0.32831  0.680085555556
 C1 0.011744 0.259702 0.20772  0.680085555556
 C1 0.011748 0.759698 0.20772  0.680085555556
 C1 0.511747 0.259702 0.20772  0.680085555556
 C1 0.511752 0.759698 0.20772  0.680085555556
 C1 0.358528 0.288388 0.05127  0.680085555556
 C1 0.358532 0.788384 0.05127  0.680085555556
 C1 0.858532 0.288388 0.05127  0.680085555556
 C1 0.858536 0.788384 0.05127  0.680085555556
 C1 0.068233 0.475727 0.1801  0.680085555556
 C1 0.068237 0.975723 0.1801  0.680085555556
 C1 0.568236 0.475727 0.1801  0.680085555556
 C1 0.568241 0.975723 0.1801  0.680085555556
 C1 0.050923 0.371605 0.96575  0.680085555556
 C1 0.050928 0.871601 0.96575  0.680085555556
 C1 0.550927 0.371605 0.96575  0.680085555556
 C1 0.550931 0.871601 0.96575  0.680085555556
 C1 0.363147 0.465103 0.05758  0.680085555556
 C1 0.363151 0.965099 0.05758  0.680085555556
 C1 0.86315 0.465103 0.05758  0.680085555556
 C1 0.863155 0.965099 0.05758  0.680085555556
 C1 0.169439 0.33733 0.1716  0.680085555556
 C1 0.169444 0.837326 0.1716  0.680085555556
 C1 0.669443 0.33733 0.1716  0.680085555556
 C1 0.669448 0.837326 0.1716  0.680085555556
 C1 0.261674 0.490312 0.29227  0.680085555556
 C1 0.261679 0.990308 0.29227  0.680085555556
 C1 0.761678 0.490312 0.29227  0.680085555556
 C1 0.761682 0.990308 0.29227  0.680085555556
 C1 0.108504 0.461763 0.44855  0.680085555556
 C1 0.108508 0.96176 0.44855  0.680085555556
 C1 0.608508 0.461763 0.44855  0.680085555556
 C1 0.608512 0.96176 0.44855  0.680085555556
 C1 0.318241 0.274237 0.31979  0.680085555556
 C1 0.318245 0.774233 0.31979  0.680085555556
 C1 0.818244 0.274237 0.31979  0.680085555556
 C1 0.818248 0.774233 0.31979  0.680085555556
 C1 0.300953 0.378334 0.53416  0.680085555556
 C1 0.300958 0.87833 0.53416  0.680085555556
 C1 0.800957 0.378334 0.53416  0.680085555556
 C1 0.800961 0.87833 0.53416  0.680085555556
 C1 0.113178 0.284994 0.44250  0.680085555556
 C1 0.113182 0.78499 0.44250  0.680085555556
 C1 0.613181 0.284994 0.44250  0.680085555556
 C1 0.613186 0.78499 0.44250  0.680085555556
 C1 0.080617 0.087294 0.6716  0.680085555556
 C1 0.080622 0.58729 0.6716  0.680085555556
 C1 0.580621 0.087294 0.6716  0.680085555556
 C1 0.580625 0.58729 0.6716  0.680085555556
 C1 0.488265 0.240291 0.79225  0.680085555556
 C1 0.488269 0.740287 0.79225  0.680085555556
 C1 0.988268 0.240291 0.79225  0.680085555556
 C1 0.988272 0.740287 0.79225  0.680085555556
 C1 0.14148 0.211605 0.94870  0.680085555556
 C1 0.141485 0.711601 0.94870  0.680085555556
 C1 0.641484 0.211604 0.94870  0.680085555556
 C1 0.641488 0.711601 0.94870  0.680085555556
 C1 0.431775 0.024266 0.81983  0.680085555556
 C1 0.43178 0.524262 0.81983  0.680085555556
 C1 0.931779 0.024265 0.81983  0.680085555556
 C1 0.931783 0.524262 0.81983  0.680085555556
 C1 0.449085 0.128388 0.0342  0.680085555556
 C1 0.449089 0.628384 0.0342  0.680085555556
 C1 0.949088 0.128388 0.0342  0.680085555556
 C1 0.949093 0.628384 0.0342  0.680085555556
 C1 0.136862 0.034889 0.94239  0.680085555556
 C1 0.136866 0.534886 0.94239  0.680085555556
 C1 0.636865 0.034889 0.94239  0.680085555556
 C1 0.63687 0.534886 0.94239  0.680085555556
 C1 0.330569 0.162663 0.82831  0.680085555556
 C1 0.330573 0.662659 0.82831  0.680085555556
 C1 0.830572 0.162663 0.82831  0.680085555556
 C1 0.830577 0.662659 0.82831  0.680085555556
 C1 0.238334 0.009681 0.70770  0.680085555556
 C1 0.238338 0.509677 0.70770  0.680085555556
 C1 0.738338 0.009681 0.70770  0.680085555556
 C1 0.738342 0.509677 0.70770  0.680085555556
 C1 0.391504 0.038229 0.55142  0.680085555556
 C1 0.391509 0.538226 0.55142  0.680085555556
 C1 0.891508 0.038229 0.55142  0.680085555556
 C1 0.891512 0.538225 0.55142  0.680085555556
 C1 0.181767 0.225756 0.68018  0.680085555556
 C1 0.181772 0.725752 0.68018  0.680085555556
 C1 0.681771 0.225756 0.68018  0.680085555556
 C1 0.681775 0.725752 0.68018  0.680085555556
 C1 0.199055 0.121659 0.4658  0.680085555556
 C1 0.199059 0.621655 0.4658  0.680085555556
 C1 0.699058 0.121659 0.4658  0.680085555556
 C1 0.699063 0.621655 0.46581  0.680085555556
 C1 0.386831 0.214999 0.55747  0.680085555556
 C1 0.386835 0.714995 0.55747  0.680085555556
 C1 0.886834 0.214999 0.55747  0.680085555556
 C1 0.886839 0.714995 0.55747  0.680085555556
 O1 0.404939 0.401324 0.24585  -0.650111111111
 O1 0.404943 0.90132 0.24585  -0.650111111111
 O1 0.904942 0.401323 0.24585  -0.650111111111
 O1 0.904947 0.90132 0.24585  -0.650111111111
 O2 0.475417 0.40765 0.36437  -0.578489444444
 O2 0.475422 0.907646 0.36437  -0.578489444444
 O2 0.975421 0.40765 0.36437  -0.578489444444
 O2 0.975425 0.907646 0.36437  -0.578489444444
 O1 0.009221 0.315298 0.21441  -0.650111111111
 O1 0.009225 0.815294 0.21441  -0.650111111111
 O1 0.509224 0.315298 0.21441  -0.650111111111
 O1 0.509229 0.815294 0.21441  -0.650111111111
 O2 0.000237 0.229888 0.138  -0.578489444444
 O2 0.000242 0.729884 0.138  -0.578489444444
 O2 0.500241 0.229888 0.138  -0.578489444444
 O2 0.500245 0.729884 0.138  -0.578489444444
 O1 0.375623 0.325814 0.112  -0.650111111111
 O1 0.375627 0.82581 0.112  -0.650111111111
 O1 0.875626 0.325814 0.112  -0.650111111111
 O1 0.875631 0.82581 0.112  -0.650111111111
 O2 0.396468 0.259932 0.00044  -0.578489444444
 O2 0.396472 0.759928 0.00044  -0.578489444444
 O2 0.896471 0.259932 0.00044  -0.578489444444
 O2 0.896476 0.759928 0.00044  -0.578489444444
 O1 0.044066 0.424914 0.19117  -0.650111111111
 O1 0.044071 0.924911 0.19117  -0.650111111111
 O1 0.54407 0.424914 0.19117  -0.650111111111
 O1 0.544074 0.924911 0.19117  -0.650111111111
 O2 0.05544 0.009793 0.11811  -0.578489444444
 O2 0.055444 0.50979 0.11811  -0.578489444444
 O2 0.555443 0.009793 0.11811  -0.578489444444
 O2 0.555448 0.50979 0.11811  -0.578489444444
 O1 0.013982 0.342946 0.02028  -0.650111111111
 O1 0.013986 0.842942 0.02028  -0.650111111111
 O1 0.513986 0.342946 0.02028  -0.650111111111
 O1 0.51399 0.842942 0.02028  -0.650111111111
 O2 0.055404 0.425329 0.9611  -0.578489444444
 O2 0.055409 0.925326 0.9611  -0.578489444444
 O2 0.555408 0.425329 0.9611  -0.578489444444
 O2 0.555412 0.925326 0.9611  -0.578489444444
 O1 0.423848 0.448173 0.06295  -0.650111111111
 O1 0.423852 0.948169 0.06295  -0.650111111111
 O1 0.923851 0.448173 0.06295  -0.650111111111
 O1 0.923856 0.948169 0.06295  -0.650111111111
 O2 0.314143 0.444633 0.09782  -0.578489444444
 O2 0.314147 0.944629 0.09782  -0.578489444444
 O2 0.814146 0.444633 0.09782  -0.578489444444
 O2 0.814151 0.944629 0.09782  -0.578489444444
 O1 0.154972 0.34879 0.25409  -0.650111111111
 O1 0.154976 0.848786 0.25409  -0.650111111111
 O1 0.654976 0.34879 0.25409  -0.650111111111
 O1 0.65498 0.848786 0.25409  -0.650111111111
 O2 0.225454 0.342366 0.13559  -0.578489444444
 O2 0.225458 0.842362 0.13559  -0.578489444444
 O2 0.725457 0.342366 0.13559  -0.578489444444
 O2 0.725462 0.842362 0.13559  -0.578489444444
 O1 0.259139 0.434723 0.28554  -0.650111111111
 O1 0.259144 0.934719 0.28554  -0.650111111111
 O1 0.759143 0.434723 0.28554  -0.650111111111
 O1 0.759147 0.934719 0.28554  -0.650111111111
 O2 0.250228 0.020122 0.36165  -0.578489444444
 O2 0.250233 0.520118 0.36165  -0.578489444444
 O2 0.750232 0.020122 0.36165  -0.578489444444
 O2 0.750236 0.520118 0.36165  -0.578489444444
 O1 0.125592 0.424252 0.38751  -0.650111111111
 O1 0.125596 0.924249 0.38751  -0.650111111111
 O1 0.625595 0.424252 0.38751  -0.650111111111
 O1 0.6256 0.924249 0.38751  -0.650111111111
 O2 0.146438 0.490115 0.4994  -0.578489444444
 O2 0.146442 0.990112 0.4994  -0.578489444444
 O2 0.646442 0.490115 0.4994  -0.578489444444
 O2 0.646446 0.990112 0.4994  -0.578489444444
 O1 0.294103 0.325095 0.30879  -0.650111111111
 O1 0.294107 0.825092 0.30879  -0.650111111111
 O1 0.794106 0.325095 0.30879  -0.650111111111
 O1 0.794111 0.825092 0.30879  -0.650111111111
 O2 0.305441 0.240188 0.38181  -0.578489444444
 O2 0.305445 0.740184 0.38181  -0.578489444444
 O2 0.805444 0.240188 0.38181  -0.578489444444
 O2 0.805449 0.740184 0.38181  -0.578489444444
 O1 0.264002 0.407041 0.47965  -0.650111111111
 O1 0.264007 0.907037 0.47965  -0.650111111111
 O1 0.764006 0.407041 0.47965  -0.650111111111
 O1 0.76401 0.907037 0.47965  -0.650111111111
 O2 0.3054 0.324605 0.5388  -0.578489444444
 O2 0.305405 0.824601 0.5388  -0.578489444444
 O2 0.805404 0.324605 0.5388  -0.578489444444
 O2 0.805408 0.824601 0.5388  -0.578489444444
 O1 0.173862 0.301881 0.43707  -0.650111111111
 O1 0.173867 0.801878 0.43707  -0.650111111111
 O1 0.673866 0.301881 0.43707  -0.650111111111
 O1 0.67387 0.801878 0.43707  -0.650111111111
 O2 0.064161 0.305428 0.40217  -0.578489444444
 O2 0.064165 0.805425 0.40217  -0.578489444444
 O2 0.564164 0.305428 0.40217  -0.578489444444
 O2 0.564169 0.805425 0.40217  -0.578489444444
 O1 0.09507 0.098669 0.75412  -0.650111111111
 O1 0.095074 0.598665 0.75412  -0.650111111111
 O1 0.595073 0.098669 0.75412  -0.650111111111
 O1 0.595078 0.598665 0.75412  -0.650111111111
 O2 0.024591 0.092343 0.63560  -0.578489444444
 O2 0.024595 0.592339 0.63560  -0.578489444444
 O2 0.524595 0.092343 0.63560  -0.578489444444
 O2 0.524599 0.592339 0.63560  -0.578489444444
 O1 0.490788 0.184694 0.78556  -0.650111111111
 O1 0.490792 0.684691 0.78556  -0.650111111111
 O1 0.990791 0.184694 0.78556  -0.650111111111
 O1 0.990795 0.684691 0.78556  -0.650111111111
 O2 0.499771 0.270104 0.86158  -0.578489444444
 O2 0.499775 0.770101 0.86158  -0.578489444444
 O2 0.999774 0.270104 0.86158  -0.578489444444
 O2 0.999779 0.770101 0.86158  -0.578489444444
 O1 0.124386 0.174179 0.88758  -0.650111111111
 O1 0.12439 0.674175 0.88758  -0.650111111111
 O1 0.624389 0.174179 0.88758  -0.650111111111
 O1 0.624394 0.674175 0.88758  -0.650111111111
 O2 0.10354 0.240061 0.99953  -0.578489444444
 O2 0.103545 0.740057 0.99953  -0.578489444444
 O2 0.603544 0.24006 0.99953  -0.578489444444
 O2 0.603548 0.740057 0.99953  -0.578489444444
 O1 0.455942 0.075078 0.80880  -0.650111111111
 O1 0.455946 0.575074 0.80880  -0.650111111111
 O1 0.955946 0.075078 0.80880  -0.650111111111
 O1 0.95595 0.575074 0.80880  -0.650111111111
 O2 0.444568 0.490199 0.88186  -0.578489444444
 O2 0.444573 0.990196 0.88186  -0.578489444444
 O2 0.944572 0.490199 0.88186  -0.578489444444
 O2 0.944576 0.990196 0.88186  -0.578489444444
 O1 0.486026 0.157046 0.97969  -0.650111111111
 O1 0.486031 0.657043 0.97969  -0.650111111111
 O1 0.98603 0.157046 0.97969  -0.650111111111
 O1 0.986034 0.657043 0.97969  -0.650111111111
 O2 0.444604 0.074663 0.03887  -0.578489444444
 O2 0.444608 0.57466 0.03887  -0.578489444444
 O2 0.944607 0.074663 0.03887  -0.578489444444
 O2 0.944612 0.57466 0.03887  -0.578489444444
 O1 0.076161 0.051819 0.93702  -0.650111111111
 O1 0.076165 0.551816 0.93702  -0.650111111111
 O1 0.576164 0.051819 0.93702  -0.650111111111
 O1 0.576169 0.551816 0.93702  -0.650111111111
 O2 0.185866 0.05536 0.90216  -0.578489444444
 O2 0.18587 0.555356 0.90216  -0.578489444444
 O2 0.685869 0.05536 0.90216  -0.578489444444
 O2 0.685874 0.555356 0.90216  -0.578489444444
 O1 0.345036 0.151203 0.74588  -0.650111111111
 O1 0.345041 0.651199 0.74588  -0.650111111111
 O1 0.84504 0.151203 0.74588  -0.650111111111
 O1 0.845044 0.651199 0.74588  -0.650111111111
 O2 0.274554 0.157627 0.86438  -0.578489444444
 O2 0.274559 0.657623 0.86438  -0.578489444444
 O2 0.774558 0.157627 0.86438  -0.578489444444
 O2 0.774563 0.657623 0.86438  -0.578489444444
 O1 0.240869 0.06527 0.71443  -0.650111111111
 O1 0.240873 0.565266 0.71443  -0.650111111111
 O1 0.740872 0.06527 0.71443  -0.650111111111
 O1 0.740877 0.565266 0.71443  -0.650111111111
 O2 0.24978 0.479871 0.6383  -0.578489444444
 O2 0.249784 0.979867 0.6383  -0.578489444444
 O2 0.749783 0.479871 0.6383  -0.578489444444
 O2 0.749788 0.979867 0.6383  -0.578489444444
 O1 0.374417 0.07574 0.61246  -0.650111111111
 O1 0.374421 0.575736 0.61246  -0.650111111111
 O1 0.87442 0.07574 0.61246  -0.650111111111
 O1 0.874425 0.575736 0.61246  -0.650111111111
 O2 0.35357 0.009877 0.50052  -0.578489444444
 O2 0.353575 0.509873 0.50052  -0.578489444444
 O2 0.853574 0.009877 0.50052  -0.578489444444
 O2 0.853578 0.509873 0.50052  -0.578489444444
 O1 0.205905 0.174897 0.69118  -0.650111111111
 O1 0.20591 0.674894 0.69118  -0.650111111111
 O1 0.705909 0.174897 0.69118  -0.650111111111
 O1 0.705913 0.674894 0.69118  -0.650111111111
 O2 0.194567 0.259804 0.61816  -0.578489444444
 O2 0.194572 0.759801 0.61816  -0.578489444444
 O2 0.694571 0.259804 0.61816  -0.578489444444
 O2 0.694575 0.759801 0.61816  -0.578489444444
 O1 0.236006 0.092952 0.52032  -0.650111111111
 O1 0.23601 0.592948 0.52032  -0.650111111111
 O1 0.73601 0.092952 0.52032  -0.650111111111
 O1 0.736014 0.592948 0.52032  -0.650111111111
 O2 0.194608 0.175387 0.46112  -0.578489444444
 O2 0.194612 0.675384 0.46112  -0.578489444444
 O2 0.694612 0.175387 0.46112  -0.578489444444
 O2 0.694616 0.675384 0.46112  -0.578489444444
 O1 0.326146 0.198111 0.56290  -0.650111111111
 O1 0.32615 0.698107 0.56290  -0.650111111111
 O1 0.826149 0.198111 0.56290  -0.650111111111
 O1 0.826154 0.698107 0.56290  -0.650111111111
 O2 0.435848 0.194564 0.59780  -0.578489444444
 O2 0.435852 0.694561 0.59780  -0.578489444444
 O2 0.935851 0.194564 0.59780  -0.578489444444
 O2 0.935856 0.694561 0.59780  -0.578489444444
