#======================================================================

# CRYSTAL DATA

#----------------------------------------------------------------------

data_VESTA_phase_1


_pd_phase_name                         MOF
_cell_length_a                         15.19100
_cell_length_b                         15.28400
_cell_length_c                         22.58000
_cell_angle_alpha                      107.06400
_cell_angle_beta                       106.78400
_cell_angle_gamma                      97.77900
_symmetry_space_group_name_H-M         "P 1"
_symmetry_Int_Tables_number            1

loop_
_symmetry_equiv_pos_as_xyz
   "x, y, z"

loop_
   _atom_site_label
   _atom_site_fract_x
   _atom_site_fract_y
   _atom_site_fract_z
 _atom_site_charge
 Ga1 0.144611 0.144664 0.28974  1.59645675
 Ga1 0.144513 0.144736 0.78974  1.59645675
 Ga1 0.144414 0.644789 0.28976  1.59645675
 Ga1 0.144435 0.644798 0.78976  1.59645675
 Ga1 0.644403 0.144805 0.28976  1.59645675
 Ga1 0.644424 0.144797 0.7897  1.59645675
 Ga1 0.6446 0.644665 0.28973  1.59645675
 Ga1 0.644513 0.644723 0.78975  1.59645675
 Ga1 0.355276 0.355515 0.21022  1.59645675
 Ga1 0.355301 0.355509 0.71023  1.59645675
 Ga1 0.355483 0.855391 0.21020  1.59645675
 Ga1 0.355393 0.855441 0.71021  1.59645675
 Ga1 0.855479 0.355387 0.21021  1.59645675
 Ga1 0.855379 0.355456 0.71021  1.59645675
 Ga1 0.855275 0.855501 0.21022  1.59645675
 Ga1 0.855296 0.855508 0.7102  1.59645675
 Ga1 1e-06 0.25 0.25002  1.59645675
 Ga1 8.2e-05 0.250359 0.75008  1.59645675
 Ga1 0.000179 0.750704 0.25014  1.59645675
 Ga1 0.000169 0.750675 0.75016  1.59645675
 Ga1 0.500176 0.250736 0.25014  1.59645675
 Ga1 0.500151 0.250657 0.75016  1.59645675
 Ga1 0.50002 0.750066 0.25003  1.59645675
 Ga1 0.500068 0.750316 0.75007  1.59645675
 Ga1 0.25033 0.00016 0.2500  1.59645675
 Ga1 0.249904 6.8e-05 0.74998  1.59645675
 Ga1 0.249396 0.499926 0.24982  1.59645675
 Ga1 0.249504 0.499971 0.7498  1.59645675
 Ga1 0.749389 0.999935 0.24982  1.59645675
 Ga1 0.749487 0.999976 0.74985  1.59645675
 Ga1 0.750331 0.500154 0.25008  1.59645675
 Ga1 0.749894 0.500058 0.7499  1.59645675
 H1 0.515715 0.16842 0.33575  0.439323
 H1 0.515712 0.16833 0.83575  0.439323
 H1 0.515771 0.667967 0.3356  0.439323
 H1 0.515717 0.668122 0.83569  0.439323
 H1 0.0 0.167949 0.33567  0.439323
 H1 0.0 0.168142 0.83569  0.439323
 H1 0.0 0.668387 0.33574  0.439323
 H1 0.0 0.668346 0.83575  0.439323
 H1 0.074206 0.466455 0.23076  0.439323
 H1 0.074258 0.466508 0.73075  0.439323
 H1 0.074797 0.966485 0.23081  0.439323
 H1 0.074513 0.966507 0.73079  0.439323
 H1 0.574784 0.466501 0.23081  0.439323
 H1 0.574501 0.466507 0.73079  0.439323
 H1 0.5742 0.966461 0.23075  0.439323
 H1 0.574254 0.966491 0.7307  0.439323
 H1 0.319295 0.168043 0.33587  0.439323
 H1 0.319158 0.167909 0.83580  0.439323
 H1 0.318996 0.667686 0.33570  0.439323
 H1 0.319037 0.667755 0.83573  0.439323
 H1 0.818985 0.167698 0.33571  0.439323
 H1 0.819027 0.167756 0.83572  0.439323
 H1 0.819286 0.668044 0.33587  0.439323
 H1 0.819156 0.667893 0.83580  0.439323
 H1 0.156331 0.264167 0.23087  0.439323
 H1 0.156379 0.264223 0.73087  0.439323
 H1 0.156505 0.764285 0.2309  0.439323
 H1 0.156463 0.764291 0.73092  0.439323
 H1 0.6565 0.264302 0.23094  0.439323
 H1 0.656447 0.264289 0.73092  0.439323
 H1 0.65634 0.76417 0.23086  0.439323
 H1 0.65637 0.764208 0.73087  0.439323
 H1 0.984302 0.331956 0.16430  0.439323
 H1 0.984246 0.332137 0.66432  0.439323
 H1 0.984217 0.832336 0.1643  0.439323
 H1 0.984233 0.832299 0.66436  0.439323
 H1 0.484208 0.332359 0.16434  0.439323
 H1 0.48422 0.33229 0.66436  0.439323
 H1 0.484303 0.831976 0.1643  0.439323
 H1 0.48424 0.832116 0.66432  0.439323
 H1 0.425564 0.033766 0.26917  0.439323
 H1 0.425284 0.03376 0.76915  0.439323
 H1 0.424974 0.533706 0.26910  0.439323
 H1 0.425035 0.533737 0.76911  0.439323
 H1 0.924971 0.033702 0.26911  0.439323
 H1 0.925017 0.033752 0.7691  0.439323
 H1 0.925567 0.533747 0.26917  0.439323
 H1 0.925275 0.533761 0.76915  0.439323
 H1 0.180587 0.332031 0.16405  0.439323
 H1 0.180631 0.332094 0.66407  0.439323
 H1 0.1809 0.832379 0.16422  0.439323
 H1 0.180766 0.83223 0.66415  0.439323
 H1 0.680895 0.332383 0.16422  0.439323
 H1 0.680752 0.332239 0.66415  0.439323
 H1 0.680586 0.832024 0.16405  0.439323
 H1 0.680626 0.832085 0.66407  0.439323
 H1 0.343729 0.236019 0.2691  0.439323
 H1 0.343675 0.236004 0.76909  0.439323
 H1 0.343564 0.735894 0.26903  0.439323
 H1 0.343597 0.735926 0.76904  0.439323
 H1 0.843544 0.235894 0.26904  0.439323
 H1 0.843589 0.235939 0.76904  0.439323
 H1 0.84372 0.736001 0.26910  0.439323
 H1 0.843678 0.736006 0.76909  0.439323
 H2 0.272929 0.164324 1.2e-0  0.10608425
 H2 0.273008 0.164309 0.50001  0.10608425
 H2 0.27281 0.664215 0.99994  0.10608425
 H2 0.272778 0.664169 0.49990  0.10608425
 H2 0.772813 0.164204 0.99994  0.10608425
 H2 0.772765 0.164198 0.49991  0.10608425
 H2 0.772908 0.664297 1e-0  0.10608425
 H2 0.773016 0.664323 0.50001  0.10608425
 H2 0.227156 0.336064 1.7e-0  0.10608425
 H2 0.227195 0.336069 0.50006  0.10608425
 H2 0.227393 0.836175 0.00010  0.10608425
 H2 0.227303 0.836159 0.50011  0.10608425
 H2 0.727371 0.336164 0.00010  0.10608425
 H2 0.727309 0.336185 0.50011  0.10608425
 H2 0.727131 0.836036 1.3e-0  0.10608425
 H2 0.727201 0.83608 0.50006  0.10608425
 C1 0.211005 0.035089 0.37667  0.68425425
 C1 0.210869 0.035102 0.87666  0.68425425
 C1 0.210652 0.534974 0.37658  0.68425425
 C1 0.210708 0.535027 0.87660  0.68425425
 C1 0.710645 0.035001 0.37658  0.68425425
 C1 0.710697 0.035019 0.87660  0.68425425
 C1 0.711009 0.535103 0.37667  0.68425425
 C1 0.710857 0.535078 0.87666  0.68425425
 C2 0.226414 0.016592 0.4401  -0.07792075
 C2 0.226388 0.016615 0.94012  -0.07792075
 C2 0.226163 0.516446 0.44002  -0.07792075
 C2 0.226236 0.516506 0.94004  -0.07792075
 C2 0.726164 0.016476 0.4400  -0.07792075
 C2 0.726204 0.016495 0.94004  -0.07792075
 C2 0.726426 0.516607 0.44012  -0.07792075
 C2 0.72637 0.516588 0.94012  -0.07792075
 C1 0.165011 0.341547 0.37674  0.68425425
 C1 0.165036 0.341658 0.87675  0.68425425
 C1 0.165127 0.841764 0.37682  0.68425425
 C1 0.165129 0.841778 0.87682  0.68425425
 C1 0.665127 0.341793 0.37682  0.68425425
 C1 0.665108 0.341765 0.87682  0.68425425
 C1 0.665019 0.841568 0.3767  0.68425425
 C1 0.665024 0.841632 0.8767  0.68425425
 C2 0.213279 0.423679 0.4400  -0.07792075
 C2 0.213288 0.423739 0.94007  -0.07792075
 C2 0.213468 0.923814 0.44014  -0.07792075
 C2 0.213451 0.923836 0.94015  -0.07792075
 C2 0.713466 0.423842 0.4401  -0.07792075
 C2 0.713429 0.423824 0.94015  -0.07792075
 C2 0.713281 0.923694 0.44006  -0.07792075
 C2 0.713294 0.923713 0.9400  -0.07792075
 C1 0.28901 0.465205 0.12333  0.68425425
 C1 0.289068 0.465224 0.62335  0.68425425
 C1 0.289381 0.965296 0.12342  0.68425425
 C1 0.289237 0.965276 0.62341  0.68425425
 C1 0.789366 0.465286 0.12342  0.68425425
 C1 0.789232 0.465297 0.62341  0.68425425
 C1 0.789002 0.965182 0.12333  0.68425425
 C1 0.789063 0.965228 0.62335  0.68425425
 C2 0.273707 0.48378 0.05992  -0.07792075
 C2 0.273768 0.483794 0.55994  -0.07792075
 C2 0.273972 0.983894 0.06001  -0.07792075
 C2 0.273926 0.983882 0.56001  -0.07792075
 C2 0.773953 0.483883 0.06001  -0.07792075
 C2 0.773922 0.483906 0.5600  -0.07792075
 C2 0.773712 0.983752 0.05992  -0.07792075
 C2 0.773764 0.983804 0.55994  -0.07792075
 C1 0.335061 0.158805 0.12332  0.68425425
 C1 0.335047 0.158789 0.62332  0.68425425
 C1 0.334953 0.658613 0.12324  0.68425425
 C1 0.334967 0.65867 0.62324  0.68425425
 C1 0.834939 0.158595 0.12323  0.68425425
 C1 0.834957 0.158693 0.62324  0.68425425
 C1 0.83505 0.658782 0.12331  0.68425425
 C1 0.835052 0.658797 0.62332  0.68425425
 C2 0.286887 0.07668 0.05999  -0.07792075
 C2 0.28685 0.076668 0.55999  -0.07792075
 C2 0.286712 0.576547 0.05990  -0.07792075
 C2 0.286707 0.576561 0.55991  -0.07792075
 C2 0.786678 0.076533 0.05990  -0.07792075
 C2 0.786705 0.076585 0.55991  -0.07792075
 C2 0.786871 0.576655 0.05999  -0.07792075
 C2 0.786862 0.576678 0.56000  -0.07792075
 C3 0.262135 0.092391 3.4e-0  -0.03463575
 C3 0.26219 0.092378 0.50003  -0.03463575
 C3 0.261979 0.592279 0.99995  -0.03463575
 C3 0.261977 0.592244 0.49994  -0.03463575
 C3 0.761982 0.092267 0.99995  -0.03463575
 C3 0.761964 0.092272 0.49995  -0.03463575
 C3 0.762117 0.592364 3.2e-0  -0.03463575
 C3 0.762195 0.592391 0.50004  -0.03463575
 C3 0.237996 0.408002 5e-0  -0.03463575
 C3 0.238001 0.407994 0.50002  -0.03463575
 C3 0.238214 0.90811 9e-0  -0.03463575
 C3 0.238151 0.908093 0.50009  -0.03463575
 C3 0.738191 0.408099 8.9e-0  -0.03463575
 C3 0.738156 0.408119 0.50009  -0.03463575
 C3 0.737967 0.907974 2e-0  -0.03463575
 C3 0.738009 0.908006 0.50002  -0.03463575
 O1 0.01124 0.145621 0.28948  -0.9587845
 O1 0.01121 0.145852 0.78950  -0.9587845
 O1 0.011208 0.646112 0.28956  -0.9587845
 O1 0.011213 0.646082 0.78957  -0.9587845
 O1 0.511202 0.146142 0.28957  -0.9587845
 O1 0.511196 0.146066 0.78956  -0.9587845
 O1 0.51124 0.645652 0.28948  -0.9587845
 O1 0.511205 0.645826 0.78950  -0.9587845
 O1 0.120322 0.016188 0.22744  -0.9587845
 O1 0.12002 0.016218 0.72740  -0.9587845
 O1 0.119635 0.516199 0.22734  -0.9587845
 O1 0.119728 0.516234 0.72735  -0.9587845
 O1 0.61963 0.016218 0.22734  -0.9587845
 O1 0.619712 0.016233 0.72735  -0.9587845
 O1 0.620321 0.516188 0.22744  -0.9587845
 O1 0.620011 0.516205 0.72740  -0.9587845
 O2 0.166353 0.097875 0.36864  -0.59979575
 O2 0.166292 0.097953 0.86867  -0.59979575
 O2 0.166145 0.597895 0.3686  -0.59979575
 O2 0.166203 0.597948 0.86865  -0.59979575
 O2 0.666139 0.097922 0.36864  -0.59979575
 O2 0.666184 0.097934 0.86865  -0.59979575
 O2 0.666358 0.597889 0.36864  -0.59979575
 O2 0.666282 0.597932 0.86867  -0.59979575
 O2 0.248169 0.488586 0.33784  -0.59979575
 O2 0.248253 0.488651 0.83788  -0.59979575
 O2 0.248735 0.988788 0.33804  -0.59979575
 O2 0.248502 0.988745 0.83798  -0.59979575
 O2 0.748731 0.488812 0.33805  -0.59979575
 O2 0.748484 0.488739 0.83798  -0.59979575
 O2 0.748166 0.988591 0.33785  -0.59979575
 O2 0.748248 0.988631 0.83787  -0.59979575
 O1 0.277914 0.144006 0.28967  -0.9587845
 O1 0.277739 0.143958 0.78962  -0.9587845
 O1 0.277519 0.643849 0.2895  -0.9587845
 O1 0.277572 0.643893 0.7895  -0.9587845
 O1 0.777512 0.14386 0.28954  -0.9587845
 O1 0.777558 0.143896 0.78955  -0.9587845
 O1 0.777908 0.644004 0.28967  -0.9587845
 O1 0.777735 0.643946 0.78962  -0.9587845
 O1 0.107411 0.211158 0.22751  -0.9587845
 O1 0.107398 0.211283 0.72753  -0.9587845
 O1 0.107431 0.711415 0.22757  -0.9587845
 O1 0.107413 0.711414 0.72757  -0.9587845
 O1 0.607423 0.211435 0.22757  -0.9587845
 O1 0.607401 0.211409 0.72757  -0.9587845
 O1 0.60741 0.711176 0.22751  -0.9587845
 O1 0.607394 0.711261 0.72752  -0.9587845
 O2 0.201342 0.270497 0.36872  -0.59979575
 O2 0.201273 0.270555 0.86872  -0.59979575
 O2 0.201242 0.770581 0.3687  -0.59979575
 O2 0.20126 0.770608 0.86877  -0.59979575
 O2 0.701235 0.270606 0.36877  -0.59979575
 O2 0.701245 0.270597 0.86878  -0.59979575
 O2 0.701334 0.77051 0.36872  -0.59979575
 O2 0.701274 0.770536 0.86872  -0.59979575
 O2 0.088926 0.349312 0.33813  -0.59979575
 O2 0.088981 0.349527 0.83815  -0.59979575
 O2 0.089174 0.849786 0.33820  -0.59979575
 O2 0.089127 0.849761 0.83823  -0.59979575
 O2 0.589174 0.349821 0.33820  -0.59979575
 O2 0.589105 0.349742 0.83823  -0.59979575
 O2 0.588933 0.849347 0.33814  -0.59979575
 O2 0.588975 0.849496 0.8381  -0.59979575
 O1 0.488743 0.354811 0.21053  -0.9587845
 O1 0.488746 0.354755 0.71054  -0.9587845
 O1 0.488807 0.854387 0.2104  -0.9587845
 O1 0.488765 0.854547 0.71050  -0.9587845
 O1 0.988791 0.354353 0.21048  -0.9587845
 O1 0.988757 0.354575 0.71050  -0.9587845
 O1 0.988739 0.854788 0.21053  -0.9587845
 O1 0.988744 0.854764 0.71054  -0.9587845
 O1 0.379489 0.484008 0.272  -0.9587845
 O1 0.379578 0.484023 0.7725  -0.9587845
 O1 0.380187 0.983993 0.27260  -0.9587845
 O1 0.379881 0.984 0.77257  -0.9587845
 O1 0.880178 0.483992 0.27260  -0.9587845
 O1 0.879867 0.484013 0.77257  -0.9587845
 O1 0.879484 0.98399 0.27250  -0.9587845
 O1 0.879572 0.984023 0.77251  -0.9587845
 O2 0.333643 0.402409 0.13137  -0.59979575
 O2 0.333696 0.402422 0.63138  -0.59979575
 O2 0.333881 0.902374 0.13137  -0.59979575
 O2 0.333799 0.90241 0.631  -0.59979575
 O2 0.833862 0.40236 0.13137  -0.59979575
 O2 0.833795 0.402431 0.63140  -0.59979575
 O2 0.833642 0.902391 0.13137  -0.59979575
 O2 0.833694 0.902428 0.63138  -0.59979575
 O2 0.251713 0.011592 0.16209  -0.59979575
 O2 0.251493 0.011537 0.66204  -0.59979575
 O2 0.251133 0.511381 0.16189  -0.59979575
 O2 0.251237 0.511429 0.66193  -0.59979575
 O2 0.751127 0.01138 0.16189  -0.59979575
 O2 0.75122 0.011444 0.66193  -0.59979575
 O2 0.751713 0.511575 0.16209  -0.59979575
 O2 0.751487 0.511536 0.66204  -0.59979575
 O1 0.221943 0.356128 0.21026  -0.9587845
 O1 0.221993 0.356168 0.71027  -0.9587845
 O1 0.222352 0.856276 0.210  -0.9587845
 O1 0.222176 0.856217 0.71034  -0.9587845
 O1 0.722346 0.356281 0.21040  -0.9587845
 O1 0.722162 0.356226 0.71034  -0.9587845
 O1 0.72194 0.85612 0.21026  -0.9587845
 O1 0.721988 0.85616 0.71027  -0.9587845
 O1 0.392565 0.289148 0.27252  -0.9587845
 O1 0.392541 0.289119 0.7725  -0.9587845
 O1 0.392551 0.788893 0.2724  -0.9587845
 O1 0.392535 0.788974 0.77248  -0.9587845
 O1 0.89254 0.288878 0.2724  -0.9587845
 O1 0.892524 0.288994 0.77248  -0.9587845
 O1 0.892559 0.789127 0.27252  -0.9587845
 O1 0.892541 0.789125 0.77253  -0.9587845
 O2 0.29863 0.22981 0.13128  -0.59979575
 O2 0.298632 0.229804 0.63129  -0.59979575
 O2 0.298707 0.729729 0.13123  -0.59979575
 O2 0.298646 0.729743 0.63123  -0.59979575
 O2 0.798695 0.229711 0.13123  -0.59979575
 O2 0.798637 0.229767 0.63123  -0.59979575
 O2 0.79862 0.729788 0.13128  -0.59979575
 O2 0.798635 0.729811 0.63129  -0.59979575
 O2 0.411152 0.151169 0.16197  -0.59979575
 O2 0.411102 0.151117 0.66199  -0.59979575
 O2 0.410958 0.650777 0.16188  -0.59979575
 O2 0.410994 0.650907 0.66190  -0.59979575
 O2 0.910934 0.150739 0.16188  -0.59979575
 O2 0.910988 0.150939 0.66190  -0.59979575
 O2 0.911143 0.651144 0.16197  -0.59979575
 O2 0.911105 0.651128 0.66200  -0.59979575
