#======================================================================

# CRYSTAL DATA

#----------------------------------------------------------------------

data_VESTA_phase_1


_pd_phase_name                         MOF
_cell_length_a                         15.37500
_cell_length_b                         15.37700
_cell_length_c                         17.98600
_cell_angle_alpha                      95.48200
_cell_angle_beta                       96.32900
_cell_angle_gamma                      94.36600
_symmetry_space_group_name_H-M         "P 1"
_symmetry_Int_Tables_number            1

loop_
_symmetry_equiv_pos_as_xyz
   "x, y, z"

loop_
   _atom_site_label
   _atom_site_fract_x
   _atom_site_fract_y
   _atom_site_fract_z
 _atom_site_charge
 Zn1 0.010842 0.010606 0.08136  0.920302041667
 Zn1 0.989222 0.988714 0.9221  0.920302041667
 Zn1 0.777455 0.678492 0.75320  0.920302041667
 Zn1 0.753069 0.659041 0.59326  0.920302041667
 Zn1 0.229112 0.315314 0.24715  0.920302041667
 Zn1 0.251802 0.337302 0.40903  0.920302041667
 H1 0.031918 0.293844 0.12379  0.099202875
 H1 0.043187 0.452909 0.12305  0.099202875
 H1 0.94258 0.421379 0.88708  0.099202875
 H1 0.937738 0.260636 0.88839  0.099202875
 H1 0.300284 0.004807 0.12436  0.099202875
 H1 0.458746 0.994238 0.11843  0.099202875
 H1 0.419847 0.013261 0.87956  0.099202875
 H1 0.259945 0.020155 0.88627  0.099202875
 H1 0.033508 0.149375 0.21714  0.099202875
 H1 0.031001 0.150547 0.35611  0.099202875
 H1 0.968556 0.86966 0.32016  0.099202875
 H1 0.972259 0.879914 0.18264  0.099202875
 H1 0.995901 0.705109 0.88065  0.099202875
 H1 0.990459 0.545215 0.88174  0.099202875
 H1 0.018064 0.578236 0.12470  0.099202875
 H1 0.027982 0.738636 0.12174  0.099202875
 H1 0.692933 0.922498 0.87881  0.099202875
 H1 0.533651 0.92896 0.88326  0.099202875
 H1 0.585642 0.0 0.1068  0.099202875
 H1 0.74512 0.0 0.10334  0.099202875
 H1 0.96875 0.851203 0.78579  0.099202875
 H1 0.969453 0.852095 0.64686  0.099202875
 H1 0.024356 0.133914 0.68469  0.099202875
 H1 0.022425 0.121691 0.82208  0.099202875
 H1 0.465126 0.62237 0.54757  0.099202875
 H1 0.303693 0.620961 0.55072  0.099202875
 H1 0.347239 0.694592 0.79008  0.099202875
 H1 0.507799 0.690009 0.78630  0.099202875
 H1 0.059648 0.636728 0.79068  0.099202875
 H1 0.218 0.624366 0.78588  0.099202875
 H1 0.190688 0.69527 0.55841  0.099202875
 H1 0.030402 0.698353 0.56202  0.099202875
 H1 0.861365 0.411268 0.76631  0.099202875
 H1 0.866992 0.250048 0.76743  0.099202875
 H1 0.674047 0.207764 0.57172  0.099202875
 H1 0.673777 0.368686 0.56894  0.099202875
 H1 0.747892 0.928399 0.55639  0.099202875
 H1 0.751042 0.089702 0.55127  0.099202875
 H1 0.790599 0.127692 0.79391  0.099202875
 H1 0.79027 0.968044 0.79778  0.099202875
 H1 0.755329 0.541541 0.85407  0.099202875
 H1 0.765811 0.526441 0.99283  0.099202875
 H1 0.818587 0.808132 0.03208  0.099202875
 H1 0.806265 0.811846 0.89276  0.099202875
 H1 0.836589 0.777491 0.49750  0.099202875
 H1 0.862509 0.781001 0.36315  0.099202875
 H1 0.713169 0.527673 0.3150  0.099202875
 H1 0.691579 0.536083 0.45123  0.099202875
 H1 0.541074 0.374013 0.454  0.099202875
 H1 0.702375 0.376974 0.4506  0.099202875
 H1 0.657398 0.299908 0.21172  0.099202875
 H1 0.4969 0.302411 0.21642  0.099202875
 H1 0.943524 0.356966 0.20727  0.099202875
 H1 0.785346 0.368914 0.21341  0.099202875
 H1 0.817068 0.307029 0.44351  0.099202875
 H1 0.9771 0.304601 0.43842  0.099202875
 H1 0.151192 0.583384 0.22817  0.099202875
 H1 0.141917 0.743762 0.22791  0.099202875
 H1 0.322318 0.787759 0.43190  0.099202875
 H1 0.325712 0.627121 0.43357  0.099202875
 H1 0.251238 0.065038 0.4470  0.099202875
 H1 0.247738 0.903575 0.45015  0.099202875
 H1 0.208052 0.869473 0.20736  0.099202875
 H1 0.207566 0.029458 0.20583  0.099202875
 H1 0.256347 0.450947 0.14662  0.099202875
 H1 0.239201 0.468275 0.00829  0.099202875
 H1 0.177839 0.18749 0.9669  0.099202875
 H1 0.198343 0.18173 0.1061  0.099202875
 H1 0.162409 0.22154 0.50295  0.099202875
 H1 0.131457 0.218819 0.63597  0.099202875
 H1 0.285794 0.469297 0.68744  0.099202875
 H1 0.311827 0.460317 0.55236  0.099202875
 C1 0.985098 0.266339 0.  -0.0362009583333
 C2 0.01241 0.321952 0.07185  -0.098458125
 C2 0.017958 0.412423 0.0710  -0.098458125
 C1 0.994831 0.451314 0.  -0.0362009583333
 C2 0.96398 0.394452 0.93921  -0.098458125
 C2 0.959969 0.303834 0.93958  -0.098458125
 C3 0.988102 0.169184 0.  0.682763708333
 C1 0.269593 0.013414 0.0056  -0.0362009583333
 C2 0.326753 0.006804 0.07084  -0.098458125
 C2 0.416103 0.00157 0.06724  -0.098458125
 C1 0.451844 0.003162 0.99850  -0.0362009583333
 C2 0.39397 0.010283 0.93340  -0.098458125
 C2 0.304458 0.015113 0.93687  -0.098458125
 C3 0.172828 0.016683 0.00887  0.682763708333
 C4 0.018724 0.089074 0.24228  0.170770375
 C2 0.017241 0.089456 0.3194  -0.098458125
 C1 0.999346 0.009849 0.3491  -0.0362009583333
 C2 0.982525 0.932806 0.29961  -0.098458125
 C4 0.984931 0.937825 0.22338  0.170770375
 C5 0.998377 0.006124 0.43052  0.339643708333
 C1 0.013449 0.732572 0.00121  -0.0362009583333
 C2 0.0 0.676799 0.93399  -0.098458125
 C2 0.998505 0.586324 0.93523  -0.098458125
 C1 0.003173 0.547732 0.00340  -0.0362009583333
 C2 0.015139 0.604857 0.07058  -0.098458125
 C2 0.020666 0.695336 0.06951  -0.098458125
 C3 0.011169 0.829657 8.6e-0  0.682763708333
 C1 0.729681 0.986829 0.99119  -0.0362009583333
 C2 0.66929 0.953146 0.92902  -0.098458125
 C2 0.57949 0.957812 0.93144  -0.098458125
 C1 0.547072 0.997526 0.99544  -0.0362009583333
 C2 0.608472 0.0 0.057  -0.098458125
 C2 0.697964 0.0 0.05539  -0.098458125
 C3 0.826785 0.983046 0.99049  0.682763708333
 C4 0.981435 0.912219 0.76108  0.170770375
 C2 0.981989 0.912959 0.68392  -0.098458125
 C1 0.997261 0.993369 0.65480  -0.0362009583333
 C2 0.012476 0.070149 0.70477  -0.098458125
 C4 0.011082 0.063992 0.78099  0.170770375
 C5 0.997233 0.997795 0.57342  0.339643708333
 C1 0.496498 0.656238 0.66679  -0.0362009583333
 C2 0.4383 0.637431 0.60046  -0.098458125
 C2 0.348121 0.637676 0.60251  -0.098458125
 C1 0.312992 0.65802 0.67054  -0.0362009583333
 C2 0.372147 0.67668 0.73678  -0.098458125
 C2 0.462247 0.675169 0.73500  -0.098458125
 C3 0.593913 0.658018 0.66490  0.682763708333
 C1 0.034705 0.669284 0.67699  -0.0362009583333
 C2 0.088737 0.649225 0.73987  -0.098458125
 C2 0.178201 0.643683 0.73724  -0.098458125
 C1 0.217306 0.66069 0.67231  -0.0362009583333
 C2 0.162441 0.680843 0.60934  -0.098458125
 C2 0.072528 0.683879 0.61128  -0.098458125
 C3 0.938023 0.67404 0.679  0.682763708333
 C1 0.767794 0.400087 0.66723  -0.0362009583333
 C2 0.821197 0.36584 0.72361  -0.098458125
 C2 0.823484 0.275691 0.72434  -0.098458125
 C1 0.770966 0.216745 0.66973  -0.0362009583333
 C2 0.717259 0.251802 0.61350  -0.098458125
 C2 0.716296 0.341987 0.61197  -0.098458125
 C3 0.76544 0.497218 0.66646  0.682763708333
 C1 0.768093 0.937669 0.67713  -0.0362009583333
 C2 0.75717 0.973027 0.60796  -0.098458125
 C2 0.758576 0.063212 0.60553  -0.098458125
 C1 0.770904 0.121019 0.67218  -0.0362009583333
 C2 0.782121 0.084858 0.74124  -0.098458125
 C2 0.780662 0.994609 0.74378  -0.098458125
 C3 0.768218 0.840465 0.67905  0.682763708333
 C4 0.767993 0.598466 0.89596  0.170770375
 C2 0.773814 0.590621 0.97248  -0.098458125
 C1 0.792623 0.666542 0.02329  -0.0362009583333
 C2 0.803201 0.747766 0.9945  -0.098458125
 C4 0.796388 0.750079 0.91700  0.170770375
 C5 0.802677 0.660087 0.10491  0.339643708333
 C5 0.80204 0.653695 0.24780  0.339643708333
 C4 0.809974 0.724157 0.45487  0.170770375
 C2 0.824306 0.72545 0.38012  -0.098458125
 C1 0.789355 0.65438 0.32786  -0.0362009583333
 C2 0.7409 0.584497 0.35338  -0.098458125
 C4 0.728822 0.588785 0.42905  0.170770375
 C1 0.508919 0.338171 0.33572  -0.0362009583333
 C2 0.567571 0.358482 0.4016  -0.098458125
 C2 0.657755 0.359193 0.39907  -0.098458125
 C1 0.692492 0.33849 0.33089  -0.0362009583333
 C2 0.632839 0.318144 0.26511  -0.098458125
 C2 0.542748 0.31856 0.267  -0.098458125
 C3 0.411511 0.335984 0.33794  0.682763708333
 C1 0.970655 0.329155 0.3222  -0.0362009583333
 C2 0.91551 0.346562 0.25902  -0.098458125
 C2 0.826104 0.351762 0.26243  -0.098458125
 C1 0.788188 0.336948 0.32842  -0.0362009583333
 C2 0.844257 0.319651 0.3917  -0.098458125
 C2 0.934054 0.317002 0.38898  -0.098458125
 C3 0.067207 0.32396 0.31929  0.682763708333
 C1 0.237932 0.595002 0.33158  -0.0362009583333
 C2 0.187461 0.62885 0.27313  -0.098458125
 C2 0.183112 0.718856 0.27298  -0.098458125
 C1 0.230699 0.778209 0.33030  -0.0362009583333
 C2 0.282247 0.743508 0.38816  -0.098458125
 C2 0.285079 0.653463 0.38910  -0.098458125
 C3 0.241443 0.497998 0.3326  0.682763708333
 C1 0.230951 0.057739 0.32637  -0.0362009583333
 C2 0.241664 0.021225 0.39499  -0.098458125
 C2 0.240238 0.93085 0.39625  -0.098458125
 C1 0.228599 0.873954 0.32902  -0.0362009583333
 C2 0.216595 0.911338 0.26056  -0.098458125
 C2 0.217625 0.001694 0.25924  -0.098458125
 C3 0.232994 0.15513 0.3249  0.682763708333
 C4 0.240503 0.394686 0.10435  0.170770375
 C2 0.230774 0.40379 0.02800  -0.098458125
 C1 0.206977 0.328958 0.97667  -0.0362009583333
 C2 0.196573 0.247279 0.00463  -0.098458125
 C4 0.207821 0.243677 0.0821  0.170770375
 C5 0.192623 0.337225 0.89543  0.339643708333
 C5 0.191899 0.345084 0.75263  0.339643708333
 C4 0.188857 0.274485 0.54598  0.170770375
 C2 0.171814 0.273614 0.62013  -0.098458125
 C1 0.206823 0.344045 0.67304  -0.0362009583333
 C2 0.25788 0.412942 0.64863  -0.098458125
 C4 0.27246 0.408319 0.57350  0.170770375
 N1 0.003529 0.014431 0.19515  -0.278781291667
 N2 0.029657 0.078529 0.47745  -0.165956291667
 N2 0.965884 0.929977 0.45332  -0.165956291667
 N1 0.995084 0.986557 0.80863  -0.278781291667
 N2 0.965306 0.925587 0.52643  -0.165956291667
 N2 0.02912 0.074129 0.55061  -0.165956291667
 N1 0.77969 0.676694 0.8684  -0.278781291667
 N2 0.779358 0.581776 0.12890  -0.165956291667
 N2 0.779103 0.578298 0.20216  -0.165956291667
 N2 0.84126 0.726532 0.22478  -0.165956291667
 N2 0.841715 0.729991 0.15143  -0.165956291667
 N1 0.76251 0.657208 0.47902  -0.278781291667
 N1 0.228268 0.31617 0.13137  -0.278781291667
 N2 0.215738 0.415862 0.87187  -0.165956291667
 N2 0.215247 0.420134 0.79867  -0.165956291667
 N2 0.149934 0.273495 0.77527  -0.165956291667
 N2 0.149936 0.269325 0.84866  -0.165956291667
 N1 0.23884 0.340429 0.52291  -0.278781291667
 O1 0.011322 0.141206 0.06864  -0.595292125
 O1 0.969814 0.122151 0.94275  -0.595292125
 O1 0.14505 0.014811 0.07311  -0.595292125
 O1 0.124947 0.02182 0.9471  -0.595292125
 O1 0.0 0.859565 0.93629  -0.595292125
 O1 0.01056 0.874803 0.06318  -0.595292125
 O1 0.855187 0.962941 0.92739  -0.595292125
 O1 0.874312 0.0 0.05344  -0.595292125
 O1 0.641674 0.662468 0.7279  -0.595292125
 O1 0.621183 0.655654 0.60038  -0.595292125
 O1 0.91175 0.689058 0.74399  -0.595292125
 O1 0.889698 0.663463 0.61653  -0.595292125
 O1 0.784869 0.543765 0.72953  -0.595292125
 O1 0.744599 0.525539 0.60325  -0.595292125
 O1 0.774099 0.811235 0.74333  -0.595292125
 O1 0.763639 0.794321 0.61578  -0.595292125
 O1 0.363708 0.3292 0.27476  -0.595292125
 O1 0.384334 0.340519 0.40254  -0.595292125
 O1 0.093531 0.310854 0.25453  -0.595292125
 O1 0.115453 0.331973 0.38215  -0.595292125
 O1 0.225561 0.451297 0.26946  -0.595292125
 O1 0.259414 0.470165 0.39659  -0.595292125
 O1 0.225881 0.184106 0.26057  -0.595292125
 O1 0.240916 0.201451 0.38832  -0.595292125
