#======================================================================

# CRYSTAL DATA

#----------------------------------------------------------------------

data_VESTA_phase_1


_pd_phase_name                         MOF
_cell_length_a                         18.27000
_cell_length_b                         20.95700
_cell_length_c                         18.59000
_cell_angle_alpha                      89.88900
_cell_angle_beta                       90.06900
_cell_angle_gamma                      89.95900
_symmetry_space_group_name_H-M         "P 1"
_symmetry_Int_Tables_number            1

loop_
_symmetry_equiv_pos_as_xyz
   "x, y, z"

loop_
   _atom_site_label
   _atom_site_fract_x
   _atom_site_fract_y
   _atom_site_fract_z
 _atom_site_charge
 Zn1 0.065656 0.011014 0.59946  0.826892857143
 Zn1 0.065654 0.511012 0.59946  0.826892857143
 Zn1 0.565652 0.011013 0.59946  0.826892857143
 Zn1 0.565649 0.511012 0.59946  0.826892857143
 Zn1 0.315552 0.489077 0.40068  0.826892857143
 Zn1 0.315551 0.989075 0.40068  0.826892857143
 Zn1 0.815547 0.489077 0.40068  0.826892857143
 Zn1 0.815544 0.989074 0.40068  0.826892857143
 Zn1 0.065738 0.240566 0.09932  0.826892857143
 Zn1 0.065736 0.740562 0.09932  0.826892857143
 Zn1 0.565733 0.240565 0.09932  0.826892857143
 Zn1 0.565731 0.740565 0.09932  0.826892857143
 Zn1 0.315496 0.261015 0.90062  0.826892857143
 Zn1 0.315494 0.761013 0.90062  0.826892857143
 Zn1 0.815491 0.261015 0.90062  0.826892857143
 Zn1 0.815489 0.761013 0.90062  0.826892857143
 H1 0.159946 0.028237 0.46665  0.0852195238095
 H1 0.159945 0.528237 0.46665  0.0852195238095
 H1 0.65994 0.028236 0.4666  0.0852195238095
 H1 0.659939 0.528236 0.46665  0.0852195238095
 H1 0.368777 0.313971 0.60722  0.0852195238095
 H1 0.368776 0.813971 0.60722  0.0852195238095
 H1 0.868773 0.313972 0.60722  0.0852195238095
 H1 0.868771 0.813971 0.60722  0.0852195238095
 H2 0.167952 0.344431 0.73693  0.336262857143
 H2 0.16795 0.844429 0.73693  0.336262857143
 H2 0.667947 0.344431 0.73693  0.336262857143
 H2 0.667944 0.844428 0.73693  0.336262857143
 H2 0.109648 0.398914 0.69159  0.336262857143
 H2 0.109646 0.898912 0.69159  0.336262857143
 H2 0.609643 0.398913 0.69159  0.336262857143
 H2 0.609639 0.89891 0.69159  0.336262857143
 H1 0.489173 0.339493 0.70757  0.0852195238095
 H1 0.48917 0.839491 0.70757  0.0852195238095
 H1 0.989169 0.339493 0.70757  0.0852195238095
 H1 0.989165 0.839491 0.70757  0.0852195238095
 H1 0.425064 0.261362 0.78781  0.0852195238095
 H1 0.425062 0.76136 0.78781  0.0852195238095
 H1 0.925061 0.261362 0.78781  0.0852195238095
 H1 0.925056 0.76136 0.78781  0.0852195238095
 H1 0.299799 0.40459 0.88016  0.0852195238095
 H1 0.299794 0.904588 0.88016  0.0852195238095
 H1 0.799792 0.40459 0.88016  0.0852195238095
 H1 0.799791 0.904588 0.88016  0.0852195238095
 H1 0.358025 0.488261 0.80108  0.0852195238095
 H1 0.35802 0.988258 0.80108  0.0852195238095
 H1 0.858018 0.48826 0.80108  0.0852195238095
 H1 0.858017 0.988259 0.80108  0.0852195238095
 H1 0.41001 0.47214 0.53350  0.0852195238095
 H1 0.410007 0.97214 0.53350  0.0852195238095
 H1 0.910005 0.47214 0.53350  0.0852195238095
 H1 0.910003 0.972138 0.53350  0.0852195238095
 H1 0.118535 0.18608 0.39285  0.0852195238095
 H1 0.118532 0.686081 0.39285  0.0852195238095
 H1 0.61853 0.186082 0.39285  0.0852195238095
 H1 0.618527 0.68608 0.39285  0.0852195238095
 H2 0.417577 0.155703 0.26298  0.336262857143
 H2 0.417573 0.655701 0.26298  0.336262857143
 H2 0.91757 0.155702 0.26298  0.336262857143
 H2 0.917568 0.655701 0.26298  0.336262857143
 H2 0.359343 0.101248 0.30829  0.336262857143
 H2 0.359341 0.601246 0.30829  0.336262857143
 H2 0.859337 0.101247 0.30829  0.336262857143
 H2 0.859335 0.601246 0.30829  0.336262857143
 H1 0.239655 0.160836 0.29241  0.0852195238095
 H1 0.239651 0.660834 0.29241  0.0852195238095
 H1 0.739649 0.160836 0.29241  0.0852195238095
 H1 0.739649 0.660834 0.29241  0.0852195238095
 H1 0.176013 0.239345 0.21209  0.0852195238095
 H1 0.176011 0.739343 0.21209  0.0852195238095
 H1 0.676004 0.239345 0.21209  0.0852195238095
 H1 0.676006 0.739344 0.21209  0.0852195238095
 H1 0.04986 0.09689 0.11943  0.0852195238095
 H1 0.049856 0.596888 0.11943  0.0852195238095
 H1 0.54985 0.096891 0.11943  0.0852195238095
 H1 0.549847 0.59689 0.11943  0.0852195238095
 H1 0.10766 0.012847 0.19847  0.0852195238095
 H1 0.107655 0.512846 0.19847  0.0852195238095
 H1 0.607654 0.012847 0.19847  0.0852195238095
 H1 0.607648 0.512847 0.19847  0.0852195238095
 H1 0.159632 0.22325 0.9664  0.0852195238095
 H1 0.159628 0.723249 0.96641  0.0852195238095
 H1 0.659627 0.223248 0.9664  0.0852195238095
 H1 0.659623 0.723249 0.96641  0.0852195238095
 H1 0.369447 0.436197 0.10669  0.0852195238095
 H1 0.369444 0.936193 0.10669  0.0852195238095
 H1 0.869441 0.436196 0.10669  0.0852195238095
 H1 0.869441 0.936193 0.106  0.0852195238095
 H2 0.168094 0.406612 0.23620  0.336262857143
 H2 0.168091 0.90661 0.23620  0.336262857143
 H2 0.668088 0.406612 0.23620  0.336262857143
 H2 0.668087 0.90661 0.23620  0.336262857143
 H2 0.109775 0.352254 0.19098  0.336262857143
 H2 0.109771 0.852252 0.19098  0.336262857143
 H2 0.609769 0.352254 0.19098  0.336262857143
 H2 0.609767 0.852252 0.19098  0.336262857143
 H1 0.489118 0.410746 0.20798  0.0852195238095
 H1 0.489115 0.910744 0.20798  0.0852195238095
 H1 0.989113 0.410745 0.20798  0.0852195238095
 H1 0.989115 0.910742 0.20798  0.0852195238095
 H1 0.425176 0.488678 0.28830  0.0852195238095
 H1 0.425171 0.988676 0.28829  0.0852195238095
 H1 0.925169 0.488677 0.288  0.0852195238095
 H1 0.925175 0.988674 0.28830  0.0852195238095
 H1 0.299803 0.345351 0.38064  0.0852195238095
 H1 0.299803 0.845348 0.38064  0.0852195238095
 H1 0.799801 0.345349 0.38064  0.0852195238095
 H1 0.799796 0.845348 0.38064  0.0852195238095
 H1 0.357884 0.261866 0.30148  0.0852195238095
 H1 0.357886 0.761863 0.3014  0.0852195238095
 H1 0.857884 0.261864 0.30149  0.0852195238095
 H1 0.857876 0.761863 0.30148  0.0852195238095
 H1 0.409683 0.278405 0.03337  0.0852195238095
 H1 0.40968 0.778404 0.03337  0.0852195238095
 H1 0.909677 0.278404 0.03337  0.0852195238095
 H1 0.909675 0.778401 0.03337  0.0852195238095
 H1 0.119808 0.065479 0.89354  0.0852195238095
 H1 0.119804 0.565475 0.89354  0.0852195238095
 H1 0.619799 0.065475 0.89354  0.0852195238095
 H1 0.619799 0.565476 0.89354  0.0852195238095
 H2 0.418249 0.094641 0.76385  0.336262857143
 H2 0.418246 0.594639 0.76385  0.336262857143
 H2 0.918246 0.094642 0.76385  0.336262857143
 H2 0.918243 0.59464 0.76385  0.336262857143
 H2 0.359673 0.148826 0.80899  0.336262857143
 H2 0.35967 0.648824 0.80899  0.336262857143
 H2 0.85967 0.148826 0.80899  0.336262857143
 H2 0.859666 0.648825 0.80899  0.336262857143
 H1 0.23956 0.089391 0.79249  0.0852195238095
 H1 0.239559 0.589389 0.79249  0.0852195238095
 H1 0.73955 0.089389 0.79249  0.0852195238095
 H1 0.739551 0.589389 0.79249  0.0852195238095
 H1 0.17561 0.01137 0.71221  0.0852195238095
 H1 0.175608 0.511367 0.71221  0.0852195238095
 H1 0.675592 0.011366 0.71223  0.0852195238095
 H1 0.675599 0.511367 0.7122  0.0852195238095
 H1 0.049883 0.154609 0.61955  0.0852195238095
 H1 0.049874 0.654605 0.61956  0.0852195238095
 H1 0.549875 0.154606 0.61956  0.0852195238095
 H1 0.549877 0.654607 0.61955  0.0852195238095
 H1 0.107959 0.238168 0.69864  0.0852195238095
 H1 0.107952 0.738165 0.69864  0.0852195238095
 H1 0.607958 0.238167 0.6986  0.0852195238095
 H1 0.607955 0.738167 0.6986  0.0852195238095
 C1 0.185459 0.490442 0.49800  0.368492857143
 C1 0.185456 0.990439 0.49800  0.368492857143
 C1 0.685453 0.490441 0.49800  0.368492857143
 C1 0.68545 0.990438 0.49800  0.368492857143
 C1 0.322087 0.345844 0.59922  0.368492857143
 C1 0.322086 0.845843 0.59922  0.368492857143
 C1 0.822083 0.345844 0.59922  0.368492857143
 C1 0.822081 0.845843 0.59922  0.368492857143
 C2 0.210635 0.381308 0.64453  0.451517857143
 C2 0.210633 0.881306 0.64453  0.451517857143
 C2 0.71063 0.381308 0.64453  0.451517857143
 C2 0.710627 0.881306 0.64453  0.451517857143
 C3 0.206024 0.422119 0.5837  -0.101877142857
 C3 0.206022 0.922117 0.5837  -0.101877142857
 C3 0.706019 0.422119 0.5837  -0.101877142857
 C3 0.706017 0.922116 0.5837  -0.101877142857
 C2 0.264307 0.419821 0.53444  0.451517857143
 C2 0.264305 0.919819 0.53444  0.451517857143
 C2 0.764302 0.419821 0.53444  0.451517857143
 C2 0.7643 0.919819 0.53444  0.451517857143
 C4 0.464016 0.468436 0.70006  0.638542857143
 C4 0.464013 0.968434 0.7000  0.638542857143
 C4 0.964011 0.468436 0.7000  0.638542857143
 C4 0.964009 0.968434 0.7000  0.638542857143
 C5 0.447401 0.355432 0.74513  -0.132817142857
 C5 0.447399 0.85543 0.74513  -0.132817142857
 C5 0.947397 0.355432 0.74513  -0.132817142857
 C5 0.947393 0.85543 0.74513  -0.132817142857
 C6 0.428249 0.419935 0.74862  -0.00712714285714
 C6 0.428245 0.919932 0.7486  -0.00712714285714
 C6 0.928243 0.419934 0.74862  -0.00712714285714
 C6 0.928242 0.919933 0.74862  -0.00712714285714
 C7 0.412003 0.31211 0.7894  0.163792857143
 C7 0.412001 0.812108 0.7894  0.163792857143
 C7 0.911999 0.31211 0.78945  0.163792857143
 C7 0.911996 0.812108 0.78944  0.163792857143
 C7 0.341426 0.392389 0.840  0.163792857143
 C7 0.341421 0.892387 0.84059  0.163792857143
 C7 0.84142 0.392389 0.84059  0.163792857143
 C7 0.841418 0.892387 0.84059  0.163792857143
 C5 0.373921 0.438323 0.79722  -0.132817142857
 C5 0.373917 0.938321 0.79722  -0.132817142857
 C5 0.873915 0.438323 0.79722  -0.132817142857
 C5 0.873913 0.938321 0.79722  -0.132817142857
 C1 0.435448 0.009883 0.50212  0.368492857143
 C1 0.435446 0.50988 0.50212  0.368492857143
 C1 0.935443 0.009881 0.50212  0.368492857143
 C1 0.935441 0.50988 0.50212  0.368492857143
 C1 0.071863 0.154267 0.40085  0.368492857143
 C1 0.071861 0.654267 0.40085  0.368492857143
 C1 0.571858 0.154269 0.4008  0.368492857143
 C1 0.571855 0.654267 0.40085  0.368492857143
 C2 0.460353 0.118864 0.35548  0.451517857143
 C2 0.46035 0.618862 0.35548  0.451517857143
 C2 0.960347 0.118863 0.35548  0.451517857143
 C2 0.960345 0.618862 0.35548  0.451517857143
 C3 0.455845 0.078094 0.41626  -0.101877142857
 C3 0.455843 0.578091 0.4162  -0.101877142857
 C3 0.955839 0.078092 0.4162  -0.101877142857
 C3 0.955837 0.578091 0.41626  -0.101877142857
 C2 0.014198 0.080405 0.46567  0.451517857143
 C2 0.014196 0.580404 0.46567  0.451517857143
 C2 0.514193 0.080407 0.46567  0.451517857143
 C2 0.514191 0.580404 0.46567  0.451517857143
 C4 0.213912 0.031997 0.29982  0.638542857143
 C4 0.213908 0.531995 0.29982  0.638542857143
 C4 0.713909 0.031995 0.29981  0.638542857143
 C4 0.713905 0.531995 0.2998  0.638542857143
 C5 0.197792 0.145124 0.25476  -0.132817142857
 C5 0.197788 0.645122 0.25476  -0.132817142857
 C5 0.69778 0.145125 0.25476  -0.132817142857
 C5 0.697781 0.645123 0.25476  -0.132817142857
 C6 0.178316 0.080709 0.25120  -0.00712714285714
 C6 0.178312 0.580708 0.25120  -0.00712714285714
 C6 0.678313 0.080708 0.251  -0.00712714285714
 C6 0.678309 0.580707 0.25120  -0.00712714285714
 C7 0.162637 0.188674 0.21038  0.163792857143
 C7 0.162633 0.688673 0.21038  0.163792857143
 C7 0.662628 0.188675 0.2103  0.163792857143
 C7 0.662628 0.688673 0.21038  0.163792857143
 C7 0.0916 0.108841 0.15905  0.163792857143
 C7 0.091595 0.608839 0.15906  0.163792857143
 C7 0.59159 0.108841 0.15906  0.163792857143
 C7 0.591587 0.608841 0.15906  0.163792857143
 C5 0.123864 0.062685 0.20245  -0.132817142857
 C5 0.123859 0.562683 0.20246  -0.132817142857
 C5 0.623852 0.062686 0.20246  -0.132817142857
 C5 0.623849 0.562685 0.20246  -0.132817142857
 C1 0.18531 0.260884 0.99766  0.368492857143
 C1 0.185307 0.760883 0.99766  0.368492857143
 C1 0.685305 0.260882 0.99766  0.368492857143
 C1 0.685302 0.760883 0.99766  0.368492857143
 C1 0.322582 0.404606 0.09869  0.368492857143
 C1 0.322579 0.904603 0.09869  0.368492857143
 C1 0.822576 0.404605 0.09869  0.368492857143
 C1 0.822576 0.904602 0.09869  0.368492857143
 C2 0.210818 0.369748 0.14385  0.451517857143
 C2 0.210815 0.869746 0.14385  0.451517857143
 C2 0.710813 0.369748 0.14385  0.451517857143
 C2 0.710811 0.869746 0.14385  0.451517857143
 C3 0.206143 0.329014 0.08323  -0.101877142857
 C3 0.20614 0.829012 0.08323  -0.101877142857
 C3 0.706138 0.329013 0.08323  -0.101877142857
 C3 0.706136 0.829012 0.08323  -0.101877142857
 C2 0.264548 0.330988 0.03400  0.451517857143
 C2 0.264544 0.830986 0.03400  0.451517857143
 C2 0.764542 0.330987 0.03400  0.451517857143
 C2 0.764541 0.830986 0.03400  0.451517857143
 C4 0.463802 0.281955 0.20023  0.638542857143
 C4 0.463802 0.781952 0.20023  0.638542857143
 C4 0.963799 0.281953 0.20023  0.638542857143
 C4 0.963795 0.781952 0.20023  0.638542857143
 C5 0.447358 0.394734 0.24555  -0.132817142857
 C5 0.447352 0.894733 0.2455  -0.132817142857
 C5 0.947352 0.394733 0.24555  -0.132817142857
 C5 0.94736 0.89473 0.24556  -0.132817142857
 C6 0.428129 0.330257 0.24897  -0.00712714285714
 C6 0.42813 0.830254 0.2489  -0.00712714285714
 C6 0.928126 0.330256 0.24897  -0.00712714285714
 C6 0.92812 0.830255 0.24897  -0.00712714285714
 C7 0.412046 0.437955 0.28991  0.163792857143
 C7 0.412042 0.937953 0.28991  0.163792857143
 C7 0.91204 0.437954 0.28991  0.163792857143
 C7 0.912043 0.937951 0.28991  0.163792857143
 C7 0.341412 0.357622 0.34105  0.163792857143
 C7 0.341411 0.85762 0.34105  0.163792857143
 C7 0.84141 0.357621 0.34105  0.163792857143
 C7 0.841407 0.857618 0.34105  0.163792857143
 C5 0.373834 0.311786 0.29762  -0.132817142857
 C5 0.37383 0.811784 0.29762  -0.132817142857
 C5 0.873831 0.311785 0.29762  -0.132817142857
 C5 0.873833 0.811782 0.2976  -0.132817142857
 C1 0.435368 0.240737 0.00219  0.368492857143
 C1 0.435366 0.740736 0.00219  0.368492857143
 C1 0.935363 0.240736 0.00219  0.368492857143
 C1 0.93536 0.740734 0.00219  0.368492857143
 C1 0.07286 0.097028 0.90145  0.368492857143
 C1 0.072856 0.597024 0.90145  0.368492857143
 C1 0.572851 0.097025 0.9014  0.368492857143
 C1 0.572851 0.597025 0.90145  0.368492857143
 C2 0.460904 0.131712 0.85615  0.451517857143
 C2 0.460903 0.631711 0.85615  0.451517857143
 C2 0.960902 0.131714 0.85615  0.451517857143
 C2 0.960898 0.631712 0.85615  0.451517857143
 C3 0.456164 0.17251 0.91671  -0.101877142857
 C3 0.456162 0.672509 0.91671  -0.101877142857
 C3 0.95616 0.172511 0.91671  -0.101877142857
 C3 0.956157 0.672509 0.91671  -0.101877142857
 C2 0.014688 0.170644 0.96597  0.451517857143
 C2 0.014684 0.670641 0.96597  0.451517857143
 C2 0.514681 0.170643 0.96597  0.451517857143
 C2 0.51468 0.670642 0.96597  0.451517857143
 C4 0.214001 0.218268 0.79996  0.638542857143
 C4 0.214 0.718266 0.79996  0.638542857143
 C4 0.714001 0.21827 0.79996  0.638542857143
 C4 0.713996 0.718266 0.79996  0.638542857143
 C5 0.197725 0.105368 0.75485  -0.132817142857
 C5 0.197721 0.605366 0.75485  -0.132817142857
 C5 0.697705 0.105365 0.75486  -0.132817142857
 C5 0.697714 0.605366 0.75485  -0.132817142857
 C6 0.178395 0.169844 0.75131  -0.00712714285714
 C6 0.178393 0.669842 0.75131  -0.00712714285714
 C6 0.678397 0.169845 0.75130  -0.00712714285714
 C6 0.67839 0.669843 0.75130  -0.00712714285714
 C7 0.162403 0.062094 0.71051  0.163792857143
 C7 0.1624 0.562092 0.71051  0.163792857143
 C7 0.662389 0.062092 0.71052  0.163792857143
 C7 0.662393 0.562092 0.71051  0.163792857143
 C7 0.09158 0.142373 0.65919  0.163792857143
 C7 0.091573 0.64237 0.65919  0.163792857143
 C7 0.59157 0.14237 0.65919  0.163792857143
 C7 0.591573 0.642371 0.65919  0.163792857143
 C5 0.124002 0.188254 0.70257  -0.132817142857
 C5 0.123994 0.688251 0.70258  -0.132817142857
 C5 0.623985 0.18825 0.7025  -0.132817142857
 C5 0.623993 0.688252 0.70257  -0.132817142857
 N1 0.25022 0.46339 0.48023  -0.416637142857
 N1 0.250218 0.963387 0.48023  -0.416637142857
 N1 0.750215 0.463389 0.48023  -0.416637142857
 N1 0.750212 0.963386 0.48023  -0.416637142857
 N2 0.32403 0.382191 0.53974  -0.576092142857
 N2 0.324029 0.882189 0.53974  -0.576092142857
 N2 0.824025 0.382191 0.53974  -0.576092142857
 N2 0.824023 0.882189 0.53974  -0.576092142857
 N1 0.156049 0.46773 0.55937  -0.416637142857
 N1 0.156046 0.967727 0.55937  -0.416637142857
 N1 0.656043 0.467729 0.55937  -0.416637142857
 N1 0.656041 0.967726 0.55937  -0.416637142857
 N2 0.270501 0.343272 0.65057  -0.576092142857
 N2 0.2705 0.843271 0.65057  -0.576092142857
 N2 0.770497 0.343272 0.65057  -0.576092142857
 N2 0.770494 0.84327 0.65057  -0.576092142857
 N3 0.160449 0.379001 0.69833  -0.663727142857
 N3 0.160447 0.879 0.69833  -0.663727142857
 N3 0.660444 0.379001 0.69833  -0.663727142857
 N3 0.660441 0.878999 0.69833  -0.663727142857
 N1 0.360079 0.330179 0.83682  -0.416637142857
 N1 0.360075 0.830177 0.83682  -0.416637142857
 N1 0.860073 0.330178 0.83682  -0.416637142857
 N1 0.860072 0.830177 0.83682  -0.416637142857
 N1 0.000212 0.036912 0.51992  -0.416637142857
 N1 0.000209 0.536911 0.51992  -0.416637142857
 N1 0.500206 0.036913 0.51992  -0.416637142857
 N1 0.500204 0.536911 0.51992  -0.416637142857
 N2 0.073897 0.117979 0.46038  -0.576092142857
 N2 0.073894 0.617979 0.4603  -0.576092142857
 N2 0.573891 0.11798 0.4603  -0.576092142857
 N2 0.573889 0.617978 0.4603  -0.576092142857
 N1 0.405936 0.032532 0.44068  -0.416637142857
 N1 0.405935 0.53253 0.44068  -0.416637142857
 N1 0.905931 0.032531 0.44068  -0.416637142857
 N1 0.905929 0.532529 0.44068  -0.416637142857
 N2 0.020199 0.156842 0.34946  -0.576092142857
 N2 0.020196 0.656843 0.34946  -0.576092142857
 N2 0.520194 0.156844 0.34946  -0.576092142857
 N2 0.520191 0.656842 0.34946  -0.576092142857
 N3 0.410085 0.12121 0.30164  -0.663727142857
 N3 0.410082 0.621208 0.30164  -0.663727142857
 N3 0.910079 0.121209 0.30164  -0.663727142857
 N3 0.910077 0.621208 0.30164  -0.663727142857
 N1 0.110584 0.170954 0.16288  -0.416637142857
 N1 0.11058 0.670952 0.16288  -0.416637142857
 N1 0.61058 0.170953 0.16288  -0.416637142857
 N1 0.610577 0.670953 0.16288  -0.416637142857
 N1 0.25029 0.287527 0.97992  -0.416637142857
 N1 0.250287 0.787525 0.97992  -0.416637142857
 N1 0.750285 0.287526 0.97992  -0.416637142857
 N1 0.750283 0.787525 0.97992  -0.416637142857
 N2 0.324472 0.368279 0.03934  -0.576092142857
 N2 0.324469 0.868276 0.03934  -0.576092142857
 N2 0.824467 0.368278 0.03934  -0.576092142857
 N2 0.824466 0.868275 0.03934  -0.576092142857
 N1 0.155929 0.283734 0.05890  -0.416637142857
 N1 0.155926 0.783732 0.058  -0.416637142857
 N1 0.655925 0.283733 0.05890  -0.416637142857
 N1 0.655922 0.783733 0.058  -0.416637142857
 N2 0.270883 0.407448 0.14991  -0.576092142857
 N2 0.270881 0.907445 0.14991  -0.576092142857
 N2 0.770878 0.407447 0.14991  -0.576092142857
 N2 0.770877 0.907444 0.14991  -0.576092142857
 N3 0.160468 0.372318 0.19747  -0.663727142857
 N3 0.160465 0.872316 0.19747  -0.663727142857
 N3 0.660462 0.372318 0.19747  -0.663727142857
 N3 0.660461 0.872316 0.19747  -0.663727142857
 N1 0.360112 0.419817 0.33729  -0.416637142857
 N1 0.360113 0.919815 0.33729  -0.416637142857
 N1 0.860109 0.419816 0.33729  -0.416637142857
 N1 0.860102 0.919815 0.33729  -0.416637142857
 N1 0.00045 0.214152 0.01997  -0.416637142857
 N1 0.000447 0.714148 0.01997  -0.416637142857
 N1 0.500445 0.214151 0.01997  -0.416637142857
 N1 0.500443 0.714151 0.01997  -0.416637142857
 N2 0.07472 0.133417 0.9607  -0.576092142857
 N2 0.074716 0.633413 0.9607  -0.576092142857
 N2 0.574712 0.133414 0.96075  -0.576092142857
 N2 0.574711 0.633415 0.96074  -0.576092142857
 N1 0.405891 0.217794 0.94100  -0.416637142857
 N1 0.405888 0.717792 0.94100  -0.416637142857
 N1 0.905886 0.217794 0.94100  -0.416637142857
 N1 0.905883 0.717791 0.94100  -0.416637142857
 N2 0.021095 0.094089 0.85019  -0.576092142857
 N2 0.021091 0.594086 0.85019  -0.576092142857
 N2 0.521086 0.094086 0.85020  -0.576092142857
 N2 0.521085 0.594086 0.850  -0.576092142857
 N3 0.410533 0.129034 0.80243  -0.663727142857
 N3 0.41053 0.629032 0.80243  -0.663727142857
 N3 0.91053 0.129035 0.80243  -0.663727142857
 N3 0.910527 0.629033 0.80243  -0.663727142857
 N1 0.110367 0.080176 0.66305  -0.416637142857
 N1 0.110365 0.580174 0.66305  -0.416637142857
 N1 0.610369 0.080176 0.66305  -0.416637142857
 N1 0.610362 0.580175 0.66305  -0.416637142857
 O1 0.021373 0.447253 0.66576  -0.608267142857
 O1 0.021371 0.947251 0.66576  -0.608267142857
 O1 0.521368 0.447253 0.66576  -0.608267142857
 O1 0.521365 0.947252 0.66576  -0.608267142857
 O2 0.437839 0.022923 0.69386  -0.568157142857
 O2 0.437837 0.522921 0.69386  -0.568157142857
 O2 0.937834 0.022923 0.69386  -0.568157142857
 O2 0.937832 0.522921 0.69386  -0.568157142857
 O1 0.271376 0.0529 0.33421  -0.608267142857
 O1 0.271373 0.552898 0.33421  -0.608267142857
 O1 0.771367 0.052902 0.33421  -0.608267142857
 O1 0.771366 0.552899 0.33421  -0.608267142857
 O2 0.187533 0.477617 0.30605  -0.568157142857
 O2 0.187531 0.977615 0.30605  -0.568157142857
 O2 0.687527 0.477618 0.3060  -0.568157142857
 O2 0.687523 0.977616 0.30606  -0.568157142857
 O1 0.021152 0.303301 0.16600  -0.608267142857
 O1 0.021153 0.803297 0.1660  -0.608267142857
 O1 0.521146 0.303301 0.16600  -0.608267142857
 O1 0.521142 0.803301 0.16600  -0.608267142857
 O2 0.437601 0.227565 0.19380  -0.568157142857
 O2 0.437598 0.727564 0.19380  -0.568157142857
 O2 0.937595 0.227566 0.19380  -0.568157142857
 O2 0.937594 0.727563 0.19380  -0.568157142857
 O1 0.271478 0.197187 0.83435  -0.608267142857
 O1 0.271474 0.697185 0.83435  -0.608267142857
 O1 0.771466 0.197184 0.83436  -0.608267142857
 O1 0.771469 0.697185 0.83435  -0.608267142857
 O2 0.18758 0.272633 0.80621  -0.568157142857
 O2 0.187576 0.77263 0.80621  -0.568157142857
 O2 0.687571 0.272631 0.80621  -0.568157142857
 O2 0.687572 0.772631 0.80621  -0.568157142857
