#======================================================================

# CRYSTAL DATA

#----------------------------------------------------------------------

data_VESTA_phase_1


_pd_phase_name                         MOF
_cell_length_a                         20.64900
_cell_length_b                         13.70900
_cell_length_c                         14.91200
_cell_angle_alpha                      89.98300
_cell_angle_beta                       90.00000
_cell_angle_gamma                      90.33000
_symmetry_space_group_name_H-M         "P 1"
_symmetry_Int_Tables_number            1

loop_
_symmetry_equiv_pos_as_xyz
   "x, y, z"

loop_
   _atom_site_label
   _atom_site_fract_x
   _atom_site_fract_y
   _atom_site_fract_z
 _atom_site_charge
 Al1 0.119476 0.660023 0.89414  1.9591313
 Al1 0.619502 0.659578 0.89408  1.9591313
 Al2 0.11224 0.385878 0.09608  2.01480963333
 Al2 0.610939 0.384885 0.09596  2.01480963333
 Al2 0.254947 0.720054 0.10865  2.01480963333
 Al2 0.754789 0.719825 0.10852  2.01480963333
 Al2 0.004169 0.390402 0.75796  2.01480963333
 Al2 0.50365 0.389692 0.75860  2.01480963333
 Al1 0.131725 0.840283 0.39463  1.9591313
 Al1 0.631506 0.840472 0.39398  1.9591313
 Al2 0.139766 0.115107 0.59590  2.01480963333
 Al2 0.640116 0.11564 0.59581  2.01480963333
 Al2 0.496421 0.779136 0.60847  2.01480963333
 Al2 0.996408 0.779085 0.60824  2.01480963333
 Al2 0.246731 0.108709 0.25800  2.01480963333
 Al2 0.746801 0.109147 0.25808  2.01480963333
 Al1 0.382452 0.340056 0.10640  1.9591313
 Al1 0.881536 0.340161 0.10552  1.9591313
 Al2 0.390217 0.615621 0.90438  2.01480963333
 Al2 0.889708 0.614935 0.9040  2.01480963333
 Al2 0.246251 0.279664 0.89214  2.01480963333
 Al2 0.746206 0.278706 0.89183  2.01480963333
 Al2 0.496885 0.609353 0.24206  2.01480963333
 Al2 0.996842 0.608911 0.24194  2.01480963333
 Al1 0.369394 0.160031 0.60522  1.9591313
 Al1 0.869493 0.159694 0.60586  1.9591313
 Al2 0.362093 0.885385 0.40406  2.01480963333
 Al2 0.862037 0.885632 0.40400  2.01480963333
 Al2 0.004925 0.220043 0.39141  2.01480963333
 Al2 0.504898 0.220108 0.39159  2.01480963333
 Al2 0.254221 0.8911 0.74239  2.01480963333
 Al2 0.753788 0.889743 0.74148  2.01480963333
 P1 0.115639 0.617628 0.10713  2.0718888
 P1 0.6152 0.617216 0.1070  2.0718888
 P1 0.121121 0.409577 0.88865  2.0718888
 P1 0.621112 0.40874 0.88868  2.0718888
 P1 0.260913 0.735602 0.89947  2.0718888
 P1 0.760842 0.735679 0.89937  2.0718888
 P1 0.00391 0.624794 0.76441  2.0718888
 P1 0.50351 0.624818 0.76504  2.0718888
 P1 0.135441 0.882988 0.60795  2.0718888
 P1 0.635946 0.882304 0.6074  2.0718888
 P1 0.129861 0.090491 0.38861  2.0718888
 P1 0.629826 0.090627 0.3885  2.0718888
 P1 0.490828 0.764444 0.39924  2.0718888
 P1 0.990792 0.764498 0.39902  2.0718888
 P1 0.247821 0.87439 0.2648  2.0718888
 P1 0.747921 0.874824 0.26445  2.0718888
 P1 0.386511 0.382383 0.89376  2.0718888
 P1 0.885286 0.382807 0.89228  2.0718888
 P1 0.379867 0.590551 0.11168  2.0718888
 P1 0.879876 0.590444 0.11146  2.0718888
 P1 0.240649 0.26414 0.10077  2.0718888
 P1 0.740149 0.264808 0.10106  2.0718888
 P1 0.497467 0.375005 0.2360  2.0718888
 P1 0.99789 0.374468 0.23519  2.0718888
 P1 0.365735 0.116846 0.39247  2.0718888
 P1 0.865639 0.117376 0.39287  2.0718888
 P1 0.371084 0.909347 0.61149  2.0718888
 P1 0.871182 0.909122 0.61137  2.0718888
 P1 0.010861 0.235605 0.60059  2.0718888
 P1 0.510822 0.235699 0.60065  2.0718888
 P1 0.254152 0.125563 0.73532  2.0718888
 P1 0.75349 0.124807 0.73503  2.0718888
 O1 0.078269 0.366779 0.81357  -0.98424823125
 O1 0.578284 0.36685 0.81315  -0.98424823125
 O1 0.094956 0.374179 0.98044  -0.98424823125
 O1 0.594837 0.3722 0.98007  -0.98424823125
 O1 0.116637 0.521132 0.88691  -0.98424823125
 O1 0.616751 0.520368 0.8877  -0.98424823125
 O1 0.206192 0.661564 0.88298  -0.98424823125
 O1 0.706251 0.661379 0.88289  -0.98424823125
 O1 0.252797 0.829239 0.84390  -0.98424823125
 O1 0.752679 0.829316 0.84378  -0.98424823125
 O1 0.264094 0.76564 0.99945  -0.98424823125
 O1 0.763921 0.765645 0.99937  -0.98424823125
 O1 0.325521 0.687702 0.87138  -0.98424823125
 O1 0.8256 0.688222 0.87128  -0.98424823125
 O1 0.460989 0.648551 0.84729  -0.98424823125
 O1 0.961013 0.645071 0.8470  -0.98424823125
 O1 0.497304 0.515994 0.74109  -0.98424823125
 O1 0.999586 0.516446 0.7380  -0.98424823125
 O1 0.480653 0.683937 0.68379  -0.98424823125
 O1 0.980137 0.684896 0.68432  -0.98424823125
 O1 0.074504 0.65268 0.78766  -0.98424823125
 O1 0.574545 0.650696 0.78772  -0.98424823125
 O1 0.133053 0.508668 0.11670  -0.98424823125
 O1 0.631147 0.50784 0.11661  -0.98424823125
 O1 0.092296 0.636241 0.01017  -0.98424823125
 O1 0.592106 0.63634 0.01006  -0.98424823125
 O1 0.061212 0.645406 0.17208  -0.98424823125
 O1 0.561067 0.646081 0.17203  -0.98424823125
 O1 0.175782 0.678927 0.12875  -0.98424823125
 O1 0.675994 0.67707 0.1286  -0.98424823125
 O1 0.19132 0.376032 0.87519  -0.98424823125
 O1 0.691324 0.375232 0.87496  -0.98424823125
 O1 0.172281 0.133071 0.31284  -0.98424823125
 O1 0.672225 0.133091 0.31273  -0.98424823125
 O1 0.155693 0.127812 0.47997  -0.98424823125
 O1 0.655683 0.128218 0.47980  -0.98424823125
 O1 0.135692 0.979071 0.38769  -0.98424823125
 O1 0.635666 0.97922 0.3876  -0.98424823125
 O1 0.044903 0.839732 0.38262  -0.98424823125
 O1 0.54461 0.840205 0.38268  -0.98424823125
 O1 0.499768 0.671176 0.34351  -0.98424823125
 O1 0.999565 0.671175 0.34327  -0.98424823125
 O1 0.488457 0.73395 0.4991  -0.98424823125
 O1 0.988167 0.734 0.49891  -0.98424823125
 O1 0.425393 0.810301 0.3718  -0.98424823125
 O1 0.925626 0.811166 0.37152  -0.98424823125
 O1 0.290942 0.854992 0.34737  -0.98424823125
 O1 0.790947 0.85501 0.34702  -0.98424823125
 O1 0.25212 0.982725 0.2378  -0.98424823125
 O1 0.752469 0.983165 0.23769  -0.98424823125
 O1 0.271818 0.813496 0.18531  -0.98424823125
 O1 0.771555 0.813708 0.18487  -0.98424823125
 O1 0.177444 0.846144 0.28876  -0.98424823125
 O1 0.677328 0.847352 0.28812  -0.98424823125
 O1 0.119185 0.992295 0.61689  -0.98424823125
 O1 0.621822 0.992207 0.61708  -0.98424823125
 O1 0.158694 0.864224 0.51093  -0.98424823125
 O1 0.658495 0.862767 0.5103  -0.98424823125
 O1 0.189377 0.854468 0.67336  -0.98424823125
 O1 0.689543 0.850947 0.67239  -0.98424823125
 O1 0.074836 0.822702 0.62912  -0.98424823125
 O1 0.574346 0.824629 0.62912  -0.98424823125
 O1 0.059216 0.12231 0.37517  -0.98424823125
 O1 0.559169 0.12244 0.37513  -0.98424823125
 O1 0.422227 0.633118 0.18748  -0.98424823125
 O1 0.922304 0.633073 0.18716  -0.98424823125
 O1 0.405771 0.628038 0.02041  -0.98424823125
 O1 0.905734 0.627431 0.01998  -0.98424823125
 O1 0.385692 0.479064 0.11267  -0.98424823125
 O1 0.885567 0.47897 0.11259  -0.98424823125
 O1 0.29554 0.33819 0.11643  -0.98424823125
 O1 0.794629 0.339535 0.11710  -0.98424823125
 O1 0.249272 0.170807 0.1565  -0.98424823125
 O1 0.748964 0.171442 0.15679  -0.98424823125
 O1 0.236637 0.233592 0.00100  -0.98424823125
 O1 0.736806 0.234241 0.00124  -0.98424823125
 O1 0.176046 0.312011 0.12897  -0.98424823125
 O1 0.675195 0.311881 0.12896  -0.98424823125
 O1 0.041151 0.354995 0.15280  -0.98424823125
 O1 0.539427 0.354615 0.15245  -0.98424823125
 O1 0.002166 0.482831 0.26204  -0.98424823125
 O1 0.502639 0.483353 0.26234  -0.98424823125
 O1 0.021769 0.313646 0.31487  -0.98424823125
 O1 0.521821 0.31396 0.31524  -0.98424823125
 O1 0.426473 0.348122 0.21391  -0.98424823125
 O1 0.927531 0.346111 0.21119  -0.98424823125
 O1 0.371991 0.492095 0.88327  -0.98424823125
 O1 0.869074 0.492116 0.88298  -0.98424823125
 O1 0.410512 0.363804 0.99047  -0.98424823125
 O1 0.908579 0.364459 0.98933  -0.98424823125
 O1 0.439309 0.350704 0.82762  -0.98424823125
 O1 0.939304 0.354101 0.82707  -0.98424823125
 O1 0.324695 0.324326 0.87441  -0.98424823125
 O1 0.824735 0.322306 0.87121  -0.98424823125
 O1 0.30918 0.62224 0.12494  -0.98424823125
 O1 0.809284 0.622447 0.12486  -0.98424823125
 O1 0.328211 0.866853 0.68668  -0.98424823125
 O1 0.828367 0.866826 0.68673  -0.98424823125
 O1 0.344791 0.874222 0.51971  -0.98424823125
 O1 0.844916 0.873555 0.51969  -0.98424823125
 O1 0.36683 0.020915 0.61317  -0.98424823125
 O1 0.866789 0.020677 0.61282  -0.98424823125
 O1 0.456043 0.161731 0.61708  -0.98424823125
 O1 0.956243 0.161344 0.61705  -0.98424823125
 O1 0.002651 0.329161 0.65619  -0.98424823125
 O1 0.502716 0.329295 0.65629  -0.98424823125
 O1 0.01402 0.265638 0.50061  -0.98424823125
 O1 0.514061 0.265811 0.50070  -0.98424823125
 O1 0.075585 0.188135 0.62877  -0.98424823125
 O1 0.575391 0.18769 0.62875  -0.98424823125
 O1 0.211036 0.145324 0.65274  -0.98424823125
 O1 0.71095 0.148498 0.65277  -0.98424823125
 O1 0.249792 0.017208 0.76204  -0.98424823125
 O1 0.747428 0.015968 0.75899  -0.98424823125
 O1 0.23052 0.186274 0.81511  -0.98424823125
 O1 0.730532 0.183741 0.81629  -0.98424823125
 O1 0.324577 0.15372 0.71157  -0.98424823125
 O1 0.824496 0.150891 0.71232  -0.98424823125
 O1 0.383285 0.007977 0.38278  -0.98424823125
 O1 0.882974 0.008372 0.38329  -0.98424823125
 O1 0.342063 0.134053 0.48956  -0.98424823125
 O1 0.842296 0.13588 0.48984  -0.98424823125
 O1 0.311329 0.144989 0.32765  -0.98424823125
 O1 0.811233 0.145361 0.3279  -0.98424823125
 O1 0.425764 0.17863 0.37150  -0.98424823125
 O1 0.925806 0.178658 0.37130  -0.98424823125
 O1 0.441194 0.875274 0.62485  -0.98424823125
 O1 0.941377 0.875436 0.62479  -0.98424823125
 F1 0.105287 0.782784 0.90613  -0.5431437
 F1 0.605265 0.782374 0.90598  -0.5431437
 F1 0.144751 0.717518 0.40976  -0.5431437
 F1 0.644714 0.717381 0.40606  -0.5431437
 F1 0.397417 0.217551 0.09401  -0.5431437
 F1 0.894712 0.217476 0.09026  -0.5431437
 F1 0.355292 0.282461 0.59011  -0.5431437
 F1 0.855254 0.282428 0.59396  -0.5431437
