#======================================================================

# CRYSTAL DATA

#----------------------------------------------------------------------

data_VESTA_phase_1


_pd_phase_name                         MOF
_cell_length_a                         18.08700
_cell_length_b                         18.08700
_cell_length_c                         17.82500
_cell_angle_alpha                      90.00000
_cell_angle_beta                       89.99900
_cell_angle_gamma                      119.98100
_symmetry_space_group_name_H-M         "P 1"
_symmetry_Int_Tables_number            1

loop_
_symmetry_equiv_pos_as_xyz
   "x, y, z"

loop_
   _atom_site_label
   _atom_site_fract_x
   _atom_site_fract_y
   _atom_site_fract_z
 _atom_site_charge
 La1 0.333301 0.16672 0.24999  2.2807195122
 La1 0.333301 0.666729 0.24999  2.2807195122
 La1 0.83331 0.16672 0.24999  2.2807195122
 La1 0.833308 0.666726 0.24999  2.2807195122
 La1 0.166714 0.333294 0.74998  2.2807195122
 La1 0.166717 0.833302 0.74998  2.2807195122
 La1 0.666722 0.333297 0.74998  2.2807195122
 La1 0.666723 0.833303 0.74998  2.2807195122
 Y1 2.5e-05 2.3e-05 0.99999  1.7804295122
 Y1 1.5e-05 0.500024 0.99998  1.7804295122
 Y1 0.500033 2.5e-05 0.99999  1.7804295122
 Y1 0.500021 0.500024 0.99998  1.7804295122
 Y1 2e-05 1.9e-05 0.49999  1.7804295122
 Y1 2e-05 0.500026 0.49999  1.7804295122
 Y1 0.500029 2.1e-05 0.49999  1.7804295122
 Y1 0.500026 0.500027 0.49999  1.7804295122
 H1 0.202551 0.211744 0.09203  0.0964695121951
 H1 0.202569 0.711758 0.09203  0.0964695121951
 H1 0.702577 0.21175 0.09203  0.0964695121951
 H1 0.702608 0.711765 0.09201  0.0964695121951
 H1 0.260702 0.177712 0.03450  0.0964695121951
 H1 0.260703 0.677708 0.03449  0.0964695121951
 H1 0.760711 0.1777 0.03449  0.0964695121951
 H1 0.760709 0.677683 0.03447  0.0964695121951
 H1 0.508915 0.297124 0.09197  0.0964695121951
 H1 0.508917 0.797132 0.09197  0.0964695121951
 H1 0.0 0.297127 0.09197  0.0964695121951
 H1 0.0 0.797138 0.0919  0.0964695121951
 H1 0.416779 0.23927 0.03435  0.0964695121951
 H1 0.416781 0.739277 0.0343  0.0964695121951
 H1 0.916789 0.23927 0.0343  0.0964695121951
 H1 0.916793 0.739274 0.03436  0.0964695121951
 H1 0.288166 0.990796 0.09199  0.0964695121951
 H1 0.288161 0.490807 0.0919  0.0964695121951
 H1 0.788172 0.990803 0.0919  0.0964695121951
 H1 0.788174 0.4908 0.09199  0.0964695121951
 H1 0.322206 0.082971 0.03447  0.0964695121951
 H1 0.322208 0.582983 0.0344  0.0964695121951
 H1 0.822221 0.082977 0.03446  0.0964695121951
 H1 0.822212 0.582976 0.03447  0.0964695121951
 H1 0.202573 0.211742 0.40795  0.0964695121951
 H1 0.202569 0.711748 0.40795  0.0964695121951
 H1 0.702581 0.211744 0.40795  0.0964695121951
 H1 0.702589 0.711751 0.40796  0.0964695121951
 H1 0.260698 0.177685 0.46550  0.0964695121951
 H1 0.260697 0.677694 0.46549  0.0964695121951
 H1 0.760707 0.177689 0.465  0.0964695121951
 H1 0.760704 0.677686 0.46550  0.0964695121951
 H1 0.508904 0.297109 0.40801  0.0964695121951
 H1 0.50891 0.797124 0.40801  0.0964695121951
 H1 0.0 0.297111 0.40801  0.0964695121951
 H1 0.0 0.797127 0.40801  0.0964695121951
 H1 0.416767 0.239262 0.46563  0.0964695121951
 H1 0.416773 0.739271 0.46563  0.0964695121951
 H1 0.916776 0.239261 0.46563  0.0964695121951
 H1 0.916784 0.739268 0.46563  0.0964695121951
 H1 0.288164 0.99079 0.40800  0.0964695121951
 H1 0.288159 0.490807 0.40800  0.0964695121951
 H1 0.788169 0.990792 0.40800  0.0964695121951
 H1 0.788169 0.490799 0.40800  0.0964695121951
 H1 0.322202 0.082966 0.46551  0.0964695121951
 H1 0.322209 0.582982 0.46552  0.0964695121951
 H1 0.822211 0.082968 0.46552  0.0964695121951
 H1 0.822211 0.582974 0.4655  0.0964695121951
 H1 0.990783 0.288175 0.90798  0.0964695121951
 H1 0.99079 0.788177 0.90798  0.0964695121951
 H1 0.490791 0.288177 0.90798  0.0964695121951
 H1 0.490793 0.788181 0.90798  0.0964695121951
 H1 0.082953 0.322182 0.96550  0.0964695121951
 H1 0.082961 0.822193 0.96550  0.0964695121951
 H1 0.582961 0.322184 0.96550  0.0964695121951
 H1 0.582963 0.82219 0.96550  0.0964695121951
 H1 0.211732 0.20258 0.90795  0.0964695121951
 H1 0.211729 0.702568 0.90794  0.0964695121951
 H1 0.711736 0.202564 0.90794  0.0964695121951
 H1 0.711728 0.702539 0.90793  0.0964695121951
 H1 0.177674 0.2607 0.96550  0.0964695121951
 H1 0.177692 0.760709 0.96549  0.0964695121951
 H1 0.677697 0.260702 0.96549  0.0964695121951
 H1 0.677719 0.760709 0.96547  0.0964695121951
 H1 0.297134 0.508913 0.90  0.0964695121951
 H1 0.297131 0.0 0.90800  0.0964695121951
 H1 0.797136 0.508909 0.90800  0.0964695121951
 H1 0.797144 0.0 0.90800  0.0964695121951
 H1 0.239248 0.41678 0.96561  0.0964695121951
 H1 0.23925 0.916784 0.96562  0.0964695121951
 H1 0.739258 0.416776 0.96562  0.0964695121951
 H1 0.739257 0.916788 0.96561  0.0964695121951
 H1 0.990776 0.288172 0.5919  0.0964695121951
 H1 0.990787 0.788179 0.59198  0.0964695121951
 H1 0.490783 0.288175 0.59199  0.0964695121951
 H1 0.49079 0.788182 0.59198  0.0964695121951
 H1 0.082948 0.322173 0.53447  0.0964695121951
 H1 0.082959 0.82219 0.53446  0.0964695121951
 H1 0.582955 0.322174 0.53447  0.0964695121951
 H1 0.582962 0.822187 0.5344  0.0964695121951
 H1 0.211731 0.202558 0.59202  0.0964695121951
 H1 0.211731 0.702566 0.59202  0.0964695121951
 H1 0.711741 0.202562 0.59202  0.0964695121951
 H1 0.711735 0.702556 0.59202  0.0964695121951
 H1 0.177696 0.260702 0.53448  0.0964695121951
 H1 0.177695 0.760709 0.53448  0.0964695121951
 H1 0.677705 0.260705 0.53448  0.0964695121951
 H1 0.677711 0.76071 0.53448  0.0964695121951
 H1 0.297138 0.508914 0.59197  0.0964695121951
 H1 0.297132 0.0 0.59197  0.0964695121951
 H1 0.79714 0.508909 0.59197  0.0964695121951
 H1 0.797141 0.0 0.59197  0.0964695121951
 H1 0.239253 0.416783 0.53435  0.0964695121951
 H1 0.239257 0.916785 0.53435  0.0964695121951
 H1 0.739261 0.416778 0.53435  0.0964695121951
 H1 0.739262 0.916786 0.53435  0.0964695121951
 C1 0.169313 0.07978 0.10772  0.766879512195
 C1 0.169315 0.57979 0.1077  0.766879512195
 C1 0.669323 0.079782 0.10771  0.766879512195
 C1 0.669324 0.579788 0.10771  0.766879512195
 C2 0.197243 0.158213 0.05830  -0.0929204878049
 C2 0.197249 0.658221 0.05829  -0.0929204878049
 C2 0.697257 0.158213 0.05829  -0.0929204878049
 C2 0.697264 0.658215 0.05828  -0.0929204878049
 C1 0.410416 0.3307 0.10769  0.766879512195
 C1 0.410418 0.830709 0.10769  0.766879512195
 C1 0.910425 0.330701 0.10769  0.766879512195
 C1 0.910426 0.830706 0.10769  0.766879512195
 C2 0.460811 0.302649 0.05824  -0.0929204878049
 C2 0.460812 0.802656 0.05824  -0.0929204878049
 C2 0.96082 0.30265 0.05824  -0.0929204878049
 C2 0.960823 0.802655 0.05824  -0.0929204878049
 C1 0.420115 0.089472 0.10772  0.766879512195
 C1 0.420112 0.589479 0.10772  0.766879512195
 C1 0.920124 0.089472 0.10772  0.766879512195
 C1 0.920123 0.589478 0.10772  0.766879512195
 C2 0.34171 0.039005 0.05827  -0.0929204878049
 C2 0.341708 0.539014 0.05827  -0.0929204878049
 C2 0.841719 0.039008 0.05827  -0.0929204878049
 C2 0.841718 0.539011 0.05827  -0.0929204878049
 C1 0.169312 0.079771 0.39227  0.766879512195
 C1 0.169311 0.579779 0.39227  0.766879512195
 C1 0.66932 0.079774 0.39227  0.766879512195
 C1 0.669319 0.579779 0.39227  0.766879512195
 C2 0.197246 0.158202 0.44169  -0.0929204878049
 C2 0.197245 0.658209 0.44169  -0.0929204878049
 C2 0.697255 0.158205 0.44169  -0.0929204878049
 C2 0.697255 0.658208 0.44169  -0.0929204878049
 C1 0.410412 0.330694 0.39229  0.766879512195
 C1 0.410414 0.830704 0.39229  0.766879512195
 C1 0.91042 0.330694 0.39229  0.766879512195
 C1 0.910421 0.830701 0.39229  0.766879512195
 C2 0.460802 0.302639 0.44174  -0.0929204878049
 C2 0.460806 0.80265 0.44174  -0.0929204878049
 C2 0.96081 0.302639 0.44174  -0.0929204878049
 C2 0.960815 0.802649 0.44174  -0.0929204878049
 C1 0.420113 0.089469 0.39226  0.766879512195
 C1 0.420111 0.589476 0.39226  0.766879512195
 C1 0.920119 0.089467 0.39226  0.766879512195
 C1 0.920119 0.589474 0.39226  0.766879512195
 C2 0.341707 0.039001 0.44171  -0.0929204878049
 C2 0.341706 0.539012 0.4417  -0.0929204878049
 C2 0.841714 0.039001 0.44171  -0.0929204878049
 C2 0.841713 0.539007 0.44171  -0.0929204878049
 C1 0.089471 0.420113 0.89225  0.766879512195
 C1 0.089472 0.920118 0.8922  0.766879512195
 C1 0.589479 0.420116 0.8922  0.766879512195
 C1 0.589479 0.92012 0.8922  0.766879512195
 C2 0.039001 0.341706 0.94170  -0.0929204878049
 C2 0.039005 0.841711 0.9417  -0.0929204878049
 C2 0.539008 0.341708 0.94170  -0.0929204878049
 C2 0.539009 0.841713 0.94170  -0.0929204878049
 C1 0.079765 0.16931 0.89226  0.766879512195
 C1 0.079767 0.669318 0.89226  0.766879512195
 C1 0.579773 0.169312 0.89226  0.766879512195
 C1 0.579773 0.669316 0.89226  0.766879512195
 C2 0.158192 0.197251 0.94169  -0.0929204878049
 C2 0.158197 0.697254 0.94168  -0.0929204878049
 C2 0.658203 0.197248 0.94168  -0.0929204878049
 C2 0.658207 0.697246 0.9416  -0.0929204878049
 C1 0.330687 0.410403 0.89229  0.766879512195
 C1 0.330689 0.91041 0.89229  0.766879512195
 C1 0.830695 0.410403 0.89229  0.766879512195
 C1 0.830695 0.910409 0.89229  0.766879512195
 C2 0.302635 0.460799 0.94173  -0.0929204878049
 C2 0.302636 0.960805 0.94174  -0.0929204878049
 C2 0.802643 0.460797 0.94174  -0.0929204878049
 C2 0.802644 0.960806 0.9417  -0.0929204878049
 C1 0.089469 0.420108 0.60771  0.766879512195
 C1 0.089472 0.920117 0.60771  0.766879512195
 C1 0.589476 0.42011 0.60771  0.766879512195
 C1 0.589479 0.920118 0.60771  0.766879512195
 C2 0.038998 0.341701 0.55826  -0.0929204878049
 C2 0.039005 0.841712 0.55826  -0.0929204878049
 C2 0.539005 0.341703 0.55826  -0.0929204878049
 C2 0.53901 0.841713 0.55826  -0.0929204878049
 C1 0.079769 0.169309 0.60770  0.766879512195
 C1 0.079768 0.669317 0.60770  0.766879512195
 C1 0.579778 0.169312 0.60770  0.766879512195
 C1 0.579776 0.669317 0.60770  0.766879512195
 C2 0.1582 0.197246 0.55828  -0.0929204878049
 C2 0.1582 0.697253 0.55828  -0.0929204878049
 C2 0.658209 0.197249 0.55828  -0.0929204878049
 C2 0.658208 0.697251 0.55828  -0.0929204878049
 C1 0.33069 0.410403 0.60768  0.766879512195
 C1 0.330692 0.91041 0.6076  0.766879512195
 C1 0.830697 0.410402 0.60768  0.766879512195
 C1 0.830698 0.910409 0.6076  0.766879512195
 C2 0.30264 0.460801 0.55823  -0.0929204878049
 C2 0.302641 0.960806 0.55823  -0.0929204878049
 C2 0.802646 0.460798 0.55823  -0.0929204878049
 C2 0.802647 0.960805 0.55823  -0.0929204878049
 O1 0.102183 0.011987 0.0903  -0.625060487805
 O1 0.102183 0.511998 0.09036  -0.625060487805
 O1 0.60219 0.011991 0.09036  -0.625060487805
 O1 0.602188 0.511998 0.09036  -0.625060487805
 O2 0.218179 0.088399 0.1624  -0.773220487805
 O2 0.21818 0.588409 0.16242  -0.773220487805
 O2 0.718189 0.088401 0.16242  -0.773220487805
 O2 0.71819 0.588408 0.16242  -0.773220487805
 O1 0.409917 0.397951 0.09040  -0.625060487805
 O1 0.40992 0.897959 0.09040  -0.625060487805
 O1 0.909926 0.397952 0.09040  -0.625060487805
 O1 0.909927 0.897956 0.09040  -0.625060487805
 O2 0.370098 0.281815 0.1623  -0.773220487805
 O2 0.3701 0.781824 0.16237  -0.773220487805
 O2 0.870107 0.281816 0.16237  -0.773220487805
 O2 0.870108 0.781821 0.16237  -0.773220487805
 O1 0.487934 0.090138 0.09038  -0.625060487805
 O1 0.487931 0.590144 0.09038  -0.625060487805
 O1 0.987943 0.090136 0.09038  -0.625060487805
 O1 0.987942 0.590145 0.09038  -0.625060487805
 O2 0.411457 0.129711 0.16242  -0.773220487805
 O2 0.411453 0.629717 0.16242  -0.773220487805
 O2 0.911467 0.129712 0.16242  -0.773220487805
 O2 0.911465 0.629717 0.16242  -0.773220487805
 O1 0.102177 0.011981 0.4096  -0.625060487805
 O1 0.102176 0.511988 0.4096  -0.625060487805
 O1 0.602186 0.011984 0.4096  -0.625060487805
 O1 0.602183 0.511989 0.4096  -0.625060487805
 O2 0.218179 0.088389 0.33756  -0.773220487805
 O2 0.218178 0.588397 0.33756  -0.773220487805
 O2 0.718188 0.088392 0.33756  -0.773220487805
 O2 0.718186 0.588396 0.33756  -0.773220487805
 O1 0.409916 0.397946 0.40958  -0.625060487805
 O1 0.409918 0.897956 0.40958  -0.625060487805
 O1 0.909923 0.397945 0.40958  -0.625060487805
 O1 0.909923 0.897952 0.40958  -0.625060487805
 O2 0.370094 0.281809 0.33762  -0.773220487805
 O2 0.370094 0.781819 0.33762  -0.773220487805
 O2 0.870103 0.28181 0.33762  -0.773220487805
 O2 0.870103 0.781816 0.33762  -0.773220487805
 O1 0.487933 0.090136 0.40960  -0.625060487805
 O1 0.48793 0.590141 0.40960  -0.625060487805
 O1 0.987939 0.090134 0.40960  -0.625060487805
 O1 0.987939 0.590141 0.40960  -0.625060487805
 O2 0.411455 0.129707 0.33756  -0.773220487805
 O2 0.411453 0.629715 0.33756  -0.773220487805
 O2 0.911462 0.129706 0.33756  -0.773220487805
 O2 0.911462 0.629713 0.33756  -0.773220487805
 O1 0.09012 0.487927 0.90959  -0.625060487805
 O1 0.090119 0.98793 0.90959  -0.625060487805
 O1 0.590127 0.487929 0.90959  -0.625060487805
 O1 0.590128 0.987933 0.90959  -0.625060487805
 O2 0.129693 0.411449 0.83754  -0.773220487805
 O2 0.129694 0.911454 0.83754  -0.773220487805
 O2 0.629702 0.411453 0.83754  -0.773220487805
 O2 0.629701 0.911455 0.83754  -0.773220487805
 O1 0.01198 0.102163 0.90961  -0.625060487805
 O1 0.011982 0.602174 0.90961  -0.625060487805
 O1 0.511988 0.102166 0.90961  -0.625060487805
 O1 0.511986 0.602174 0.90961  -0.625060487805
 O2 0.08839 0.218168 0.83755  -0.773220487805
 O2 0.088393 0.718175 0.83754  -0.773220487805
 O2 0.588398 0.21817 0.8375  -0.773220487805
 O2 0.588398 0.718174 0.83754  -0.773220487805
 O1 0.397948 0.40992 0.90956  -0.625060487805
 O1 0.397949 0.909927 0.90956  -0.625060487805
 O1 0.897956 0.40992 0.90956  -0.625060487805
 O1 0.897955 0.909925 0.90956  -0.625060487805
 O2 0.281813 0.370101 0.83760  -0.773220487805
 O2 0.281815 0.87011 0.83760  -0.773220487805
 O2 0.78182 0.370103 0.83760  -0.773220487805
 O2 0.78182 0.87011 0.83760  -0.773220487805
 O1 0.090121 0.487923 0.59038  -0.625060487805
 O1 0.090123 0.987932 0.59038  -0.625060487805
 O1 0.590129 0.487925 0.59038  -0.625060487805
 O1 0.590131 0.987933 0.59038  -0.625060487805
 O2 0.129689 0.411441 0.66242  -0.773220487805
 O2 0.129693 0.911451 0.66242  -0.773220487805
 O2 0.629697 0.411444 0.66242  -0.773220487805
 O2 0.629699 0.911451 0.66242  -0.773220487805
 O1 0.011982 0.102167 0.59035  -0.625060487805
 O1 0.011982 0.602174 0.59035  -0.625060487805
 O1 0.511992 0.102169 0.59035  -0.625060487805
 O1 0.511989 0.602175 0.59035  -0.625060487805
 O2 0.088393 0.218165 0.66242  -0.773220487805
 O2 0.088393 0.718173 0.66242  -0.773220487805
 O2 0.588403 0.218168 0.66242  -0.773220487805
 O2 0.588401 0.718173 0.66242  -0.773220487805
 O1 0.397952 0.409921 0.59040  -0.625060487805
 O1 0.397955 0.90993 0.59040  -0.625060487805
 O1 0.897959 0.409921 0.59040  -0.625060487805
 O1 0.897961 0.909929 0.59040  -0.625060487805
 O2 0.281814 0.370099 0.66236  -0.773220487805
 O2 0.281816 0.870106 0.66236  -0.773220487805
 O2 0.781821 0.3701 0.66236  -0.773220487805
 O2 0.781822 0.870106 0.66236  -0.773220487805
 O3 0.135913 0.135916 2e-0  -0.290950487805
 O3 0.135903 0.635917 0.99998  -0.290950487805
 O3 0.63592 0.135919 2e-0  -0.290950487805
 O3 0.635907 0.635919 0.99998  -0.290950487805
 O3 0.99999 0.364049 2.2e-0  -0.290950487805
 O3 0.999989 0.864053 2.2e-0  -0.290950487805
 O3 0.499997 0.36405 2.3e-0  -0.290950487805
 O3 0.499987 0.864047 0.  -0.290950487805
 O3 0.36404 0.999974 0.99998  -0.290950487805
 O3 0.364027 0.499971 0.99996  -0.290950487805
 O3 0.864047 0.999971 0.99998  -0.290950487805
 O3 0.864048 0.499982 0.99998  -0.290950487805
 O3 0.135906 0.135911 0.49998  -0.290950487805
 O3 0.135906 0.635917 0.49998  -0.290950487805
 O3 0.635916 0.135913 0.49998  -0.290950487805
 O3 0.635913 0.635919 0.49998  -0.290950487805
 O3 0.999982 0.364039 0.49996  -0.290950487805
 O3 0.999983 0.864047 0.49996  -0.290950487805
 O3 0.49999 0.364041 0.49996  -0.290950487805
 O3 0.499992 0.86405 0.49996  -0.290950487805
 O3 0.364037 0.99997 0.50000  -0.290950487805
 O3 0.364033 0.499974 0.50000  -0.290950487805
 O3 0.864042 0.999967 0.50000  -0.290950487805
 O3 0.864042 0.499974 0.50000  -0.290950487805
