#======================================================================

# CRYSTAL DATA

#----------------------------------------------------------------------

data_VESTA_phase_1


_pd_phase_name                         MOF
_cell_length_a                         18.40200
_cell_length_b                         18.41800
_cell_length_c                         18.41200
_cell_angle_alpha                      60.33400
_cell_angle_beta                       60.26400
_cell_angle_gamma                      60.26800
_symmetry_space_group_name_H-M         "P 1"
_symmetry_Int_Tables_number            1

loop_
_symmetry_equiv_pos_as_xyz
   "x, y, z"

loop_
   _atom_site_label
   _atom_site_fract_x
   _atom_site_fract_y
   _atom_site_fract_z
 _atom_site_charge
 Zn1 0.880448 0.7069 0.20682  1.05617240566
 Zn1 0.293136 0.119825 0.79320  1.05617240566
 Zn1 0.119558 0.293092 0.79319  1.05617240566
 Zn1 0.70687 0.880167 0.20681  1.05617240566
 Zn1 0.706782 0.70681 0.38023  1.05617240566
 Zn1 0.70592 0.706282 0.20627  1.05617240566
 Zn1 0.293224 0.293182 0.61978  1.05617240566
 Zn1 0.294087 0.293709 0.7937  1.05617240566
 H1 0.550285 0.067899 0.33585  0.10682490566
 H1 0.546207 0.835874 0.56787  0.10682490566
 H1 0.549744 0.067316 0.04822  0.10682490566
 H1 0.546566 0.835916 0.04779  0.10682490566
 H1 0.068319 0.835872 0.048  0.10682490566
 H1 0.931642 0.449877 0.66414  0.10682490566
 H1 0.164389 0.453573 0.43219  0.10682490566
 H1 0.932379 0.450381 0.95200  0.10682490566
 H1 0.164334 0.453138 0.95206  0.10682490566
 H1 0.164383 0.932143 0.95126  0.10682490566
 H1 0.44972 0.932093 0.66416  0.10682490566
 H1 0.453799 0.164118 0.43214  0.10682490566
 H1 0.450262 0.932676 0.95179  0.10682490566
 H1 0.45344 0.164075 0.95222  0.10682490566
 H1 0.931687 0.16412 0.9516  0.10682490566
 H1 0.068364 0.550115 0.33586  0.10682490566
 H1 0.835617 0.546419 0.56782  0.10682490566
 H1 0.067627 0.549611 0.04801  0.10682490566
 H1 0.835672 0.546854 0.04794  0.10682490566
 H1 0.835623 0.067849 0.04875  0.10682490566
 H1 0.547252 0.547401 0.33585  0.10682490566
 H1 0.548773 0.548876 0.56762  0.10682490566
 H1 0.452754 0.452591 0.66416  0.10682490566
 H1 0.451233 0.451117 0.43239  0.10682490566
 C1 0.611316 0.889072 0.38903  0.671611572327
 C2 0.553755 0.946382 0.44636  -0.108439261006
 C3 0.527859 0.038943 0.40776  -0.0614542610063
 C3 0.525568 0.907768 0.53893  -0.0614542610063
 C1 0.611038 0.888525 0.11086  0.671611572327
 C2 0.553725 0.946047 0.05353  -0.108439261006
 C3 0.527555 0.038601 0.0267  -0.0614542610063
 C3 0.525784 0.907788 0.02650  -0.0614542610063
 C3 0.039163 0.907765 0.02680  -0.0614542610063
 C1 0.110778 0.388595 0.61104  0.671611572327
 C2 0.053522 0.446154 0.55369  -0.108439261006
 C3 0.960824 0.472244 0.59224  -0.0614542610063
 C3 0.092369 0.474322 0.46112  -0.0614542610063
 C1 0.111439 0.388774 0.88919  0.671611572327
 C2 0.053909 0.446166 0.94652  -0.108439261006
 C3 0.961233 0.472524 0.97341  -0.0614542610063
 C3 0.092341 0.474055 0.97342  -0.0614542610063
 C3 0.092364 0.961084 0.97302  -0.0614542610063
 C1 0.38869 0.110921 0.61098  0.671611572327
 C2 0.44625 0.05361 0.55365  -0.108439261006
 C3 0.472147 0.96105 0.59225  -0.0614542610063
 C3 0.474438 0.092224 0.46108  -0.0614542610063
 C1 0.388966 0.111467 0.88915  0.671611572327
 C2 0.446282 0.053945 0.94648  -0.108439261006
 C3 0.472451 0.96139 0.97329  -0.0614542610063
 C3 0.474221 0.092203 0.97351  -0.0614542610063
 C3 0.960844 0.092227 0.97321  -0.0614542610063
 C1 0.889228 0.611398 0.38897  0.671611572327
 C2 0.946484 0.553837 0.44632  -0.108439261006
 C3 0.039182 0.527748 0.40777  -0.0614542610063
 C3 0.907637 0.52567 0.53889  -0.0614542610063
 C1 0.888567 0.611219 0.11082  0.671611572327
 C2 0.946098 0.553825 0.05349  -0.108439261006
 C3 0.038773 0.527469 0.02660  -0.0614542610063
 C3 0.907665 0.525938 0.02659  -0.0614542610063
 C3 0.907643 0.038908 0.02699  -0.0614542610063
 C1 0.610803 0.611071 0.38873  0.671611572327
 C2 0.553538 0.553705 0.44618  -0.108439261006
 C3 0.526196 0.526245 0.40776  -0.0614542610063
 C3 0.527039 0.527058 0.53877  -0.0614542610063
 C1 0.889202 0.889032 0.11187  0.671611572327
 C2 0.94647 0.946343 0.05417  -0.108439261006
 C1 0.389206 0.388919 0.61128  0.671611572327
 C2 0.446466 0.446288 0.55383  -0.108439261006
 C3 0.473811 0.473746 0.59225  -0.0614542610063
 C3 0.472968 0.472933 0.46124  -0.0614542610063
 C1 0.110805 0.11096 0.88813  0.671611572327
 C2 0.053537 0.053649 0.94584  -0.108439261006
 O1 0.633432 0.805411 0.42850  -0.577131761006
 O1 0.633482 0.928545 0.30534  -0.577131761006
 O1 0.632469 0.804852 0.13297  -0.577131761006
 O1 0.633847 0.927948 0.13290  -0.577131761006
 O1 0.928804 0.805365 0.13417  -0.577131761006
 O1 0.194593 0.366493 0.57155  -0.577131761006
 O1 0.071147 0.366331 0.69474  -0.577131761006
 O1 0.195246 0.367144 0.86713  -0.577131761006
 O1 0.071891 0.366101 0.8671  -0.577131761006
 O1 0.19461 0.071475 0.86591  -0.577131761006
 O1 0.366574 0.194581 0.57151  -0.577131761006
 O1 0.366523 0.071447 0.69467  -0.577131761006
 O1 0.367537 0.19514 0.86704  -0.577131761006
 O1 0.366161 0.072044 0.86711  -0.577131761006
 O1 0.071202 0.194627 0.86584  -0.577131761006
 O1 0.805413 0.633498 0.42846  -0.577131761006
 O1 0.928859 0.633662 0.30527  -0.577131761006
 O1 0.80476 0.632849 0.13288  -0.577131761006
 O1 0.928116 0.63389 0.13286  -0.577131761006
 O1 0.805396 0.928517 0.13410  -0.577131761006
 O2 0.749949 0.749898 0.24991  -1.22259009434
 O1 0.633245 0.633369 0.42825  -0.577131761006
 O1 0.632493 0.633011 0.30501  -0.577131761006
 O2 0.250057 0.250094 0.75010  -1.22259009434
 O1 0.36676 0.366624 0.57176  -0.577131761006
 O1 0.367513 0.366981 0.69500  -0.577131761006
