#======================================================================

# CRYSTAL DATA

#----------------------------------------------------------------------

data_VESTA_phase_1


_pd_phase_name                         MOF
_cell_length_a                         13.19000
_cell_length_b                         13.94700
_cell_length_c                         16.98800
_cell_angle_alpha                      89.97400
_cell_angle_beta                       89.98700
_cell_angle_gamma                      90.12600
_symmetry_space_group_name_H-M         "P 1"
_symmetry_Int_Tables_number            1

loop_
_symmetry_equiv_pos_as_xyz
   "x, y, z"

loop_
   _atom_site_label
   _atom_site_fract_x
   _atom_site_fract_y
   _atom_site_fract_z
 _atom_site_charge
 Zn1 0.476005 0.408592 0.42682  0.821161826923
 Zn1 0.425773 0.480126 0.09327  0.821161826923
 Zn1 0.52396 0.091613 0.92687  0.821161826923
 Zn1 0.574249 0.02004 0.59333  0.821161826923
 Zn1 0.977556 0.591435 0.07306  0.821161826923
 Zn1 0.924484 0.519731 0.4067  0.821161826923
 Zn1 0.022424 0.908599 0.57308  0.821161826923
 Zn1 0.075447 0.98055 0.90669  0.821161826923
 Zn2 0.523618 0.59165 0.57316  0.823431826923
 Zn1 0.574361 0.520379 0.906  0.821161826923
 Zn1 0.476037 0.908548 0.07314  0.821161826923
 Zn1 0.425859 0.980187 0.40672  0.821161826923
 Zn1 0.022432 0.408615 0.92692  0.821161826923
 Zn1 0.075323 0.480536 0.59326  0.821161826923
 Zn1 0.977584 0.091492 0.4269  0.821161826923
 Zn1 0.924527 0.019613 0.09329  0.821161826923
 H1 0.239863 0.361572 0.49164  0.0812468269231
 H1 0.441673 0.19922 0.348  0.0812468269231
 H2 0.349192 0.650375 0.66605  0.359687451923
 H2 0.226083 0.612056 0.68206  0.359687451923
 H2 0.562693 0.229579 0.63843  0.359687451923
 H2 0.566745 0.338915 0.59106  0.359687451923
 H1 0.759959 0.13861 0.99179  0.0812468269231
 H1 0.559291 0.301217 0.84863  0.0812468269231
 H2 0.650158 0.849823 0.16638  0.359687451923
 H2 0.773218 0.888264 0.18265  0.359687451923
 H2 0.437016 0.271241 0.13809  0.359687451923
 H2 0.433215 0.161733 0.09123  0.359687451923
 H1 0.740308 0.638862 0.  0.0812468269231
 H1 0.940526 0.800613 0.1511  0.0812468269231
 H2 0.848326 0.350907 0.8335  0.359687451923
 H2 0.725614 0.389574 0.81727  0.359687451923
 H2 0.064892 0.771705 0.86220  0.359687451923
 H2 0.06806 0.662198 0.90896  0.359687451923
 H1 0.259918 0.861528 0.50903  0.0812468269231
 H1 0.058908 0.699457 0.65123  0.0812468269231
 H2 0.151856 0.149799 0.3338  0.359687451923
 H2 0.274868 0.111684 0.31792  0.359687451923
 H2 0.935339 0.728483 0.36214  0.359687451923
 H2 0.932017 0.837994 0.40882  0.359687451923
 H1 0.759624 0.638913 0.50773  0.0812468269231
 H1 0.558631 0.801008 0.65136  0.0812468269231
 H2 0.650305 0.349759 0.3336  0.359687451923
 H2 0.773371 0.388162 0.31742  0.359687451923
 H2 0.437144 0.771163 0.36172  0.359687451923
 H2 0.433263 0.661604 0.40864  0.359687451923
 H1 0.239998 0.861753 0.  0.0812468269231
 H1 0.440992 0.6992 0.15133  0.0812468269231
 H2 0.349797 0.150421 0.83363  0.359687451923
 H2 0.226743 0.111973 0.81737  0.359687451923
 H2 0.563008 0.729458 0.86195  0.359687451923
 H2 0.567176 0.838791 0.90893  0.359687451923
 H1 0.259885 0.361477 0.99099  0.0812468269231
 H1 0.059298 0.199514 0.84885  0.0812468269231
 H2 0.151702 0.649617 0.16609  0.359687451923
 H2 0.274694 0.611461 0.18209  0.359687451923
 H2 0.935133 0.228375 0.13781  0.359687451923
 H2 0.931911 0.337903 0.09109  0.359687451923
 H1 0.740214 0.138782 0.49105  0.0812468269231
 H1 0.940682 0.300755 0.3487  0.0812468269231
 H2 0.848205 0.850508 0.66623  0.359687451923
 H2 0.72521 0.888674 0.68218  0.359687451923
 H2 0.06474 0.271695 0.6377  0.359687451923
 H2 0.068013 0.162225 0.5910  0.359687451923
 C1 0.421277 0.515986 0.27984  0.515881826923
 C1 0.463287 0.41647 0.25631  0.515881826923
 C2 0.299829 0.547122 0.5924  0.635201826923
 C3 0.27547 0.422716 0.51987  0.270176826923
 C2 0.530586 0.220388 0.52300  0.635201826923
 C3 0.470436 0.19074 0.40791  0.270176826923
 C1 0.578631 0.984115 0.77992  0.515881826923
 C1 0.536671 0.083653 0.75636  0.515881826923
 C2 0.699723 0.953235 0.09279  0.635201826923
 C3 0.724289 0.077492 0.02007  0.270176826923
 C2 0.469631 0.280097 0.02276  0.635201826923
 C3 0.530238 0.30971 0.90777  0.270176826923
 C1 0.921432 0.483761 0.21983  0.515881826923
 C1 0.963426 0.583346 0.24363  0.515881826923
 C2 0.799204 0.453809 0.907  0.635201826923
 C3 0.775551 0.577777 0.98049  0.270176826923
 C2 0.03153 0.78029 0.97734  0.635201826923
 C3 0.969899 0.809345 0.09206  0.270176826923
 C1 0.078563 0.016321 0.71986  0.515881826923
 C1 0.036577 0.916732 0.74369  0.515881826923
 C2 0.20094 0.046775 0.40778  0.635201826923
 C3 0.224634 0.922628 0.48064  0.270176826923
 C2 0.968413 0.719881 0.47733  0.635201826923
 C3 0.02969 0.690753 0.59215  0.270176826923
 C1 0.578542 0.486561 0.72008  0.515881826923
 C1 0.534752 0.585067 0.7439  0.515881826923
 C2 0.699719 0.453265 0.40710  0.635201826923
 C3 0.724033 0.577725 0.47954  0.270176826923
 C2 0.469625 0.779947 0.47705  0.635201826923
 C3 0.529891 0.809498 0.59214  0.270176826923
 C1 0.421362 0.016084 0.22015  0.515881826923
 C1 0.463324 0.91654 0.24368  0.515881826923
 C2 0.300227 0.047074 0.90726  0.635201826923
 C3 0.27567 0.922852 0.98002  0.270176826923
 C2 0.53079 0.720364 0.97725  0.635201826923
 C3 0.470049 0.690727 0.09220  0.270176826923
 C1 0.078506 0.516278 0.78010  0.515881826923
 C1 0.036554 0.416681 0.75631  0.515881826923
 C2 0.200867 0.54665 0.09221  0.635201826923
 C3 0.224589 0.422558 0.01936  0.270176826923
 C2 0.968426 0.219831 0.02266  0.635201826923
 C3 0.029969 0.190779 0.90791  0.270176826923
 C1 0.921434 0.983747 0.28017  0.515881826923
 C1 0.963407 0.083344 0.25633  0.515881826923
 C2 0.799133 0.953521 0.592  0.635201826923
 C3 0.775469 0.077667 0.51943  0.270176826923
 C2 0.031458 0.280336 0.52259  0.635201826923
 C3 0.969962 0.309444 0.40785  0.270176826923
 N1 0.227331 0.481286 0.57182  -0.550303173077
 N2 0.37091 0.44872 0.5080  -0.326820673077
 N2 0.387349 0.529612 0.55427  -0.326820673077
 N3 0.284436 0.621891 0.64248  -0.760108173077
 N2 0.484951 0.105967 0.44144  -0.326820673077
 N2 0.524328 0.123831 0.51630  -0.326820673077
 N1 0.497155 0.264369 0.45582  -0.550303173077
 N3 0.570988 0.265818 0.58637  -0.760108173077
 N1 0.772324 0.018972 0.07215  -0.550303173077
 N2 0.62886 0.05151 0.00825  -0.326820673077
 N2 0.612293 0.97071 0.05456  -0.326820673077
 N3 0.714922 0.878538 0.1430  -0.760108173077
 N2 0.51558 0.394489 0.94120  -0.326820673077
 N2 0.475919 0.376657 0.01600  -0.326820673077
 N1 0.503326 0.236066 0.95568  -0.550303173077
 N3 0.428979 0.234827 0.08611  -0.760108173077
 N1 0.727068 0.519677 0.92818  -0.550303173077
 N2 0.870766 0.551421 0.99242  -0.326820673077
 N2 0.886674 0.470754 0.94593  -0.326820673077
 N3 0.783643 0.379383 0.85700  -0.760108173077
 N2 0.984348 0.894283 0.05866  -0.326820673077
 N2 0.024731 0.876806 0.98403  -0.326820673077
 N1 0.997566 0.735967 0.04431  -0.550303173077
 N3 0.072851 0.735286 0.9142  -0.760108173077
 N1 0.273165 0.980977 0.42848  -0.550303173077
 N2 0.129318 0.948751 0.49246  -0.326820673077
 N2 0.113377 0.029528 0.44605  -0.326820673077
 N3 0.216491 0.121411 0.35745  -0.760108173077
 N2 0.015313 0.605841 0.55876  -0.326820673077
 N2 0.975151 0.623365 0.48407  -0.326820673077
 N1 0.002184 0.764171 0.54434  -0.550303173077
 N3 0.927292 0.764898 0.4141  -0.760108173077
 N1 0.772243 0.519075 0.42767  -0.550303173077
 N2 0.628584 0.551771 0.49132  -0.326820673077
 N2 0.612193 0.470823 0.44520  -0.326820673077
 N3 0.715037 0.378446 0.35704  -0.760108173077
 N2 0.515311 0.894301 0.55868  -0.326820673077
 N2 0.475871 0.87651 0.4838  -0.326820673077
 N1 0.50318 0.735906 0.54420  -0.550303173077
 N3 0.429098 0.734702 0.41370  -0.760108173077
 N1 0.227632 0.981345 0.92793  -0.550303173077
 N2 0.371096 0.948837 0.9918  -0.326820673077
 N2 0.387658 0.029625 0.94551  -0.326820673077
 N3 0.285028 0.121748 0.85  -0.760108173077
 N2 0.484731 0.605961 0.05875  -0.326820673077
 N2 0.524488 0.623811 0.98400  -0.326820673077
 N1 0.497017 0.764355 0.04431  -0.550303173077
 N3 0.57155 0.765694 0.91396  -0.760108173077
 N1 0.273078 0.480836 0.07154  -0.550303173077
 N2 0.1293 0.448732 0.00751  -0.326820673077
 N2 0.113348 0.529472 0.05391  -0.326820673077
 N3 0.216368 0.62123 0.1425  -0.760108173077
 N2 0.01555 0.105844 0.94131  -0.326820673077
 N2 0.975232 0.123321 0.01596  -0.326820673077
 N1 0.002337 0.264156 0.95568  -0.550303173077
 N3 0.927135 0.264813 0.08582  -0.760108173077
 N1 0.726939 0.019362 0.57162  -0.550303173077
 N2 0.870754 0.051474 0.50757  -0.326820673077
 N2 0.886675 0.970701 0.55398  -0.326820673077
 N3 0.78357 0.878913 0.64265  -0.760108173077
 N2 0.984275 0.394358 0.44126  -0.326820673077
 N2 0.024569 0.376845 0.51591  -0.326820673077
 N1 0.997646 0.236033 0.45560  -0.550303173077
 N3 0.07277 0.235317 0.58574  -0.760108173077
 O1 0.470925 0.395729 0.18380  -0.535848173077
 O2 0.394904 0.569982 0.22386  -0.552708173077
 O1 0.489029 0.359291 0.31068  -0.535848173077
 O2 0.418244 0.532893 0.35316  -0.552708173077
 O1 0.529045 0.104399 0.68384  -0.535848173077
 O2 0.60499 0.930124 0.72397  -0.552708173077
 O1 0.510962 0.140854 0.81070  -0.535848173077
 O2 0.581688 0.967215 0.85325  -0.552708173077
 O1 0.969274 0.604404 0.3161  -0.535848173077
 O2 0.893472 0.429913 0.27551  -0.552708173077
 O1 0.990874 0.640248 0.1894  -0.535848173077
 O2 0.919973 0.466751 0.14649  -0.552708173077
 O1 0.030752 0.895636 0.81624  -0.535848173077
 O2 0.106528 0.070118 0.7755  -0.552708173077
 O1 0.0 0.859897 0.68952  -0.535848173077
 O2 0.080037 0.033357 0.64653  -0.552708173077
 O1 0.52807 0.605386 0.81660  -0.535848173077
 O2 0.605613 0.432575 0.77582  -0.552708173077
 O1 0.506908 0.641559 0.68979  -0.535848173077
 O1 0.582188 0.47026 0.64664  -0.535848173077
 O1 0.470967 0.895767 0.31619  -0.535848173077
 O2 0.395073 0.070073 0.27614  -0.552708173077
 O1 0.489038 0.859376 0.18932  -0.535848173077
 O2 0.418247 0.032988 0.14682  -0.552708173077
 O1 0.03072 0.39562 0.68377  -0.535848173077
 O2 0.106364 0.570136 0.72438  -0.552708173077
 O1 0.0 0.359789 0.81051  -0.535848173077
 O2 0.080023 0.533282 0.85343  -0.552708173077
 O1 0.969245 0.104408 0.18377  -0.535848173077
 O2 0.893457 0.929939 0.22450  -0.552708173077
 O1 0.990863 0.140227 0.31048  -0.535848173077
 O2 0.919975 0.966708 0.35351  -0.552708173077
