#======================================================================

# CRYSTAL DATA

#----------------------------------------------------------------------

data_VESTA_phase_1


_pd_phase_name                         MOF
_cell_length_a                         15.48200
_cell_length_b                         15.96200
_cell_length_c                         15.94800
_cell_angle_alpha                      76.59300
_cell_angle_beta                       61.25100
_cell_angle_gamma                      61.15600
_symmetry_space_group_name_H-M         "P 1"
_symmetry_Int_Tables_number            1

loop_
_symmetry_equiv_pos_as_xyz
   "x, y, z"

loop_
   _atom_site_label
   _atom_site_fract_x
   _atom_site_fract_y
   _atom_site_fract_z
 _atom_site_charge
 Zn1 0.249994 0.999977 3.9e-0  0.769436634615
 Zn1 0.749987 3.4e-05 0.99997  0.769436634615
 Si1 6e-06 2e-06 3e-0  1.80155163462
 Si1 0.499996 2e-06 2e-0  1.80155163462
 H1 0.270616 0.16226 0.05115  0.118325384615
 H1 0.18465 0.340418 0.0537  0.118325384615
 H1 0.481499 0.838991 0.94858  0.118325384615
 H1 0.576858 0.661006 0.94585  0.118325384615
 H1 0.321273 0.949104 0.16250  0.118325384615
 H1 0.238014 0.946314 0.34067  0.118325384615
 H1 0.430106 0.051651 0.83923  0.118325384615
 H1 0.522762 0.054249 0.6612  0.118325384615
 H1 0.018538 0.051494 0.16079  0.118325384615
 H1 0.923232 0.054133 0.33874  0.118325384615
 H1 0.229505 0.948898 0.83749  0.118325384615
 H1 0.315511 0.946171 0.65931  0.118325384615
 H1 0.069614 0.161008 0.9483  0.118325384615
 H1 0.976966 0.339001 0.94563  0.118325384615
 H1 0.178739 0.837761 0.0509  0.118325384615
 H1 0.262061 0.659616 0.05359  0.118325384615
 H1 0.729386 0.837766 0.94880  0.118325384615
 H1 0.81539 0.659609 0.94612  0.118325384615
 H1 0.518478 0.161027 0.05140  0.118325384615
 H1 0.42312 0.339012 0.05410  0.118325384615
 H1 0.678705 0.050905 0.83749  0.118325384615
 H1 0.761969 0.053654 0.65932  0.118325384615
 H1 0.56988 0.948361 0.16076  0.118325384615
 H1 0.477241 0.945738 0.33871  0.118325384615
 H1 0.981439 0.948519 0.83919  0.118325384615
 H1 0.076751 0.94584 0.66125  0.118325384615
 H1 0.770488 0.051103 0.16250  0.118325384615
 H1 0.684499 0.053804 0.34068  0.118325384615
 H1 0.930375 0.83901 0.05164  0.118325384615
 H1 0.0 0.661016 0.05430  0.118325384615
 H1 0.821236 0.162261 0.94908  0.118325384615
 H1 0.737916 0.340406 0.94636  0.118325384615
 C1 0.20478 0.204014 0.02893  0.171701634615
 C2 0.157008 0.303268 0.02995  -0.206284615385
 C1 0.435825 0.796687 0.97070  0.171701634615
 C2 0.488641 0.697484 0.96964  -0.206284615385
 C1 0.23346 0.971206 0.20416  0.171701634615
 C2 0.186752 0.970118 0.3034  -0.206284615385
 C1 0.406528 0.029406 0.79682  0.171701634615
 C2 0.458288 0.030398 0.69763  -0.206284615385
 C1 0.064232 0.029332 0.20319  0.171701634615
 C2 0.011449 0.030335 0.30238  -0.206284615385
 C1 0.295265 0.971075 0.7958  0.171701634615
 C2 0.343044 0.97003 0.69658  -0.206284615385
 C1 0.09328 0.203325 0.9705  0.171701634615
 C2 0.041515 0.302527 0.9695  -0.206284615385
 C1 0.266578 0.796005 0.02880  0.171701634615
 C2 0.313323 0.696752 0.02982  -0.206284615385
 C1 0.795229 0.79601 0.97101  0.171701634615
 C2 0.84302 0.696756 0.96997  -0.206284615385
 C1 0.564152 0.203332 0.02927  0.171701634615
 C2 0.511337 0.302535 0.03032  -0.206284615385
 C1 0.76652 0.028791 0.79583  0.171701634615
 C2 0.813229 0.029865 0.69657  -0.206284615385
 C1 0.59346 0.970601 0.20317  0.171701634615
 C2 0.541716 0.969587 0.30236  -0.206284615385
 C1 0.935747 0.970668 0.79679  0.171701634615
 C2 0.988532 0.96965 0.69760  -0.206284615385
 C1 0.704727 0.028925 0.20415  0.171701634615
 C2 0.656965 0.029949 0.30341  -0.206284615385
 C1 0.906722 0.796695 0.02940  0.171701634615
 C2 0.958505 0.697492 0.03041  -0.206284615385
 C1 0.733397 0.204016 0.97118  0.171701634615
 C2 0.686654 0.30327 0.97014  -0.206284615385
 C3 0.073035 0.355128 0.99978  0.173371634615
 C4 0.022072 0.456385 0.99990  -0.0902883653846
 C3 0.427173 0.644888 0.99980  0.173371634615
 C4 0.478016 0.543628 0.99992  -0.0902883653846
 C3 0.072922 0.000154 0.35512  0.173371634615
 C4 0.022055 1.2e-05 0.45637  -0.0902883653846
 C3 0.426923 0.000133 0.64487  0.173371634615
 C4 0.477914 1.4e-05 0.54361  -0.0902883653846
 C3 0.927007 0.644887 0.00015  0.173371634615
 C4 0.97798 0.54363 1.6e-0  -0.0902883653846
 C3 0.57281 0.355125 0.00017  0.173371634615
 C4 0.521968 0.456384 4.7e-0  -0.0902883653846
 C3 0.927059 0.999809 0.6448  0.173371634615
 C4 0.977927 0.999943 0.54361  -0.0902883653846
 C3 0.573079 0.999845 0.35512  0.173371634615
 C4 0.522097 0.999952 0.45637  -0.0902883653846
 N1 0.173636 0.154445 0.99983  -0.307638365385
 N1 0.32651 0.845599 0.99982  -0.307638365385
 N1 0.173527 0.000223 0.15442  -0.307638365385
 N1 0.32628 0.000194 0.84554  -0.307638365385
 N1 0.826362 0.845569 0.00016  -0.307638365385
 N1 0.673473 0.154413 0.00018  -0.307638365385
 N1 0.826447 0.999789 0.84557  -0.307638365385
 N1 0.673706 0.999808 0.15444  -0.307638365385
 F1 0.113532 1e-05 7e-0  -0.494598365385
 F1 0.386453 0.999917 0.00010  -0.494598365385
 F1 0.886462 0.999994 0.99999  -0.494598365385
 F1 0.613541 8.5e-05 0.99989  -0.494598365385
 F2 0.0 0.908582 0.08007  -0.575028365385
 F2 0.994201 0.091433 0.91991  -0.575028365385
 F2 0.085224 0.919912 0.90859  -0.575028365385
 F2 0.914763 0.080102 0.09139  -0.575028365385
 F2 0.50521 0.080148 0.90864  -0.575028365385
 F2 0.494783 0.919867 0.0913  -0.575028365385
 F2 0.585203 0.908662 0.91983  -0.575028365385
 F2 0.414784 0.091356 0.08014  -0.575028365385
