#======================================================================

# CRYSTAL DATA

#----------------------------------------------------------------------

data_VESTA_phase_1


_pd_phase_name                         MOF
_cell_length_a                         9.97700
_cell_length_b                         16.51000
_cell_length_c                         12.13000
_cell_angle_alpha                      89.99200
_cell_angle_beta                       89.99500
_cell_angle_gamma                      91.97200
_symmetry_space_group_name_H-M         "P 1"
_symmetry_Int_Tables_number            1

loop_
_symmetry_equiv_pos_as_xyz
   "x, y, z"

loop_
   _atom_site_label
   _atom_site_fract_x
   _atom_site_fract_y
   _atom_site_fract_z
 _atom_site_charge
 Al1 0.249987 0.999999 0.50000  1.91519861111
 Al1 0.249995 0.499999 0.50000  1.91519861111
 Al1 0.749967 0.999999 0.50000  1.91519861111
 Al1 0.749975 0.499999 0.50000  1.91519861111
 Al1 0.249989 0.0 0.  1.91519861111
 Al1 0.249997 0.500001 0.  1.91519861111
 Al1 0.749968 0.0 0.  1.91519861111
 Al1 0.749976 0.500001 0.  1.91519861111
 Al2 0.382419 0.429019 0.75001  2.00116361111
 Al2 0.382427 0.929019 0.75001  2.00116361111
 Al2 0.882398 0.429019 0.75001  2.00116361111
 Al2 0.882406 0.929019 0.75001  2.00116361111
 Al2 0.117564 0.070979 0.2  2.00116361111
 Al2 0.11757 0.57098 0.2  2.00116361111
 Al2 0.617543 0.070979 0.2  2.00116361111
 Al2 0.617549 0.57098 0.2  2.00116361111
 P1 0.494176 0.384259 0.51625  1.67526361111
 P1 0.494183 0.884262 0.51625  1.67526361111
 P1 0.994155 0.384259 0.51625  1.67526361111
 P1 0.994162 0.884262 0.51625  1.67526361111
 P1 0.005814 0.11574 0.01623  1.67526361111
 P1 0.00582 0.615738 0.01623  1.67526361111
 P1 0.505793 0.11574 0.01623  1.67526361111
 P1 0.505799 0.615738 0.01623  1.67526361111
 P1 0.005807 0.115739 0.48375  1.67526361111
 P1 0.005814 0.615737 0.48375  1.67526361111
 P1 0.505786 0.115739 0.48375  1.67526361111
 P1 0.505793 0.615737 0.48375  1.67526361111
 P1 0.494169 0.384258 0.98377  1.67526361111
 P1 0.494176 0.884261 0.98377  1.67526361111
 P1 0.994148 0.384258 0.98377  1.67526361111
 P1 0.994155 0.884261 0.98377  1.67526361111
 H1 0.478894 0.280837 0.38087  0.167303611111
 H1 0.478899 0.780836 0.38087  0.167303611111
 H1 0.978873 0.280837 0.38087  0.167303611111
 H1 0.978878 0.780836 0.38087  0.167303611111
 H1 0.351094 0.269994 0.48108  0.167303611111
 H1 0.351104 0.769993 0.48108  0.167303611111
 H1 0.851074 0.269994 0.48108  0.167303611111
 H1 0.851083 0.769993 0.48108  0.167303611111
 H1 0.021109 0.219196 0.88087  0.167303611111
 H1 0.021117 0.719198 0.88087  0.167303611111
 H1 0.521088 0.219196 0.88087  0.167303611111
 H1 0.521096 0.719198 0.88087  0.167303611111
 H1 0.148892 0.230013 0.98108  0.167303611111
 H1 0.148896 0.730014 0.9810  0.167303611111
 H1 0.648871 0.230013 0.98108  0.167303611111
 H1 0.648875 0.730014 0.9810  0.167303611111
 H1 0.021089 0.219161 0.6191  0.167303611111
 H1 0.021097 0.719163 0.61913  0.167303611111
 H1 0.521068 0.219161 0.6191  0.167303611111
 H1 0.521076 0.719163 0.61913  0.167303611111
 H1 0.148888 0.230004 0.51892  0.167303611111
 H1 0.148892 0.730006 0.5189  0.167303611111
 H1 0.648868 0.230004 0.51892  0.167303611111
 H1 0.648871 0.730006 0.5189  0.167303611111
 H1 0.478874 0.280802 0.11914  0.167303611111
 H1 0.478879 0.780801 0.11913  0.167303611111
 H1 0.978853 0.280802 0.11914  0.167303611111
 H1 0.978859 0.780801 0.11913  0.167303611111
 H1 0.351091 0.269985 0.01893  0.167303611111
 H1 0.3511 0.769985 0.01893  0.167303611111
 H1 0.85107 0.269985 0.01893  0.167303611111
 H1 0.851079 0.769985 0.01893  0.167303611111
 C1 0.459308 0.281803 0.47007  -0.493406388889
 C1 0.459317 0.781806 0.47007  -0.493406388889
 C1 0.959287 0.281803 0.47007  -0.493406388889
 C1 0.959297 0.781806 0.47007  -0.493406388889
 C1 0.040681 0.218204 0.97007  -0.493406388889
 C1 0.040685 0.718203 0.97007  -0.493406388889
 C1 0.54066 0.218204 0.97007  -0.493406388889
 C1 0.540664 0.718203 0.97007  -0.493406388889
 C1 0.040674 0.218195 0.52993  -0.493406388889
 C1 0.040679 0.718193 0.52993  -0.493406388889
 C1 0.540654 0.218195 0.52993  -0.493406388889
 C1 0.540658 0.718193 0.52993  -0.493406388889
 C1 0.459302 0.281794 0.02994  -0.493406388889
 C1 0.459311 0.781796 0.02993  -0.493406388889
 C1 0.959281 0.281794 0.02994  -0.493406388889
 C1 0.95929 0.781796 0.02993  -0.493406388889
 O1 0.472872 0.381725 0.6447  -0.951443055556
 O1 0.472878 0.881724 0.6447  -0.951443055556
 O1 0.972851 0.381725 0.6447  -0.951443055556
 O1 0.972858 0.881724 0.6447  -0.951443055556
 O1 0.396606 0.439995 0.45853  -0.951443055556
 O1 0.396611 0.939996 0.45853  -0.951443055556
 O1 0.896585 0.439995 0.45853  -0.951443055556
 O1 0.896591 0.939996 0.45853  -0.951443055556
 O1 0.141321 0.404937 0.48955  -0.951443055556
 O1 0.141328 0.904936 0.48955  -0.951443055556
 O1 0.6413 0.404937 0.48955  -0.951443055556
 O1 0.641307 0.904936 0.48955  -0.951443055556
 O1 0.027086 0.118256 0.14475  -0.951443055556
 O1 0.027093 0.618258 0.14475  -0.951443055556
 O1 0.527065 0.118256 0.14475  -0.951443055556
 O1 0.527072 0.618258 0.14475  -0.951443055556
 O1 0.103402 0.060015 0.9585  -0.951443055556
 O1 0.10341 0.560015 0.95853  -0.951443055556
 O1 0.603381 0.060015 0.9585  -0.951443055556
 O1 0.603389 0.560015 0.95853  -0.951443055556
 O1 0.358678 0.095057 0.9895  -0.951443055556
 O1 0.358685 0.595058 0.9895  -0.951443055556
 O1 0.858657 0.095057 0.9895  -0.951443055556
 O1 0.858664 0.595058 0.9895  -0.951443055556
 O1 0.027111 0.118273 0.35524  -0.951443055556
 O1 0.027118 0.618275 0.35524  -0.951443055556
 O1 0.52709 0.118273 0.35524  -0.951443055556
 O1 0.527097 0.618275 0.35524  -0.951443055556
 O1 0.103377 0.060003 0.54147  -0.951443055556
 O1 0.103385 0.560003 0.54147  -0.951443055556
 O1 0.603356 0.060003 0.54147  -0.951443055556
 O1 0.603364 0.560003 0.54147  -0.951443055556
 O1 0.358662 0.095061 0.51045  -0.951443055556
 O1 0.358668 0.595063 0.51045  -0.951443055556
 O1 0.858641 0.095062 0.51045  -0.951443055556
 O1 0.858647 0.595063 0.51045  -0.951443055556
 O1 0.472897 0.381742 0.8552  -0.951443055556
 O1 0.472903 0.881741 0.8552  -0.951443055556
 O1 0.972876 0.381742 0.8552  -0.951443055556
 O1 0.972882 0.881741 0.8552  -0.951443055556
 O1 0.396581 0.439983 0.04147  -0.951443055556
 O1 0.396587 0.939984 0.04147  -0.951443055556
 O1 0.89656 0.439983 0.04147  -0.951443055556
 O1 0.896566 0.939984 0.04147  -0.951443055556
 O1 0.141305 0.404941 0.01047  -0.951443055556
 O1 0.141312 0.904941 0.01047  -0.951443055556
 O1 0.641284 0.404941 0.01047  -0.951443055556
 O1 0.641291 0.904941 0.01047  -0.951443055556
 F1 0.278439 0.47629 0.65282  -0.620316388889
 F1 0.278446 0.976291 0.65282  -0.620316388889
 F1 0.778418 0.47629 0.65282  -0.620316388889
 F1 0.778425 0.976291 0.65282  -0.620316388889
 F1 0.22154 0.023705 0.15281  -0.620316388889
 F1 0.221547 0.523706 0.15281  -0.620316388889
 F1 0.721519 0.023705 0.15281  -0.620316388889
 F1 0.721526 0.523706 0.15281  -0.620316388889
 F1 0.221544 0.023708 0.3471  -0.620316388889
 F1 0.221551 0.523708 0.34718  -0.620316388889
 F1 0.721523 0.023708 0.3471  -0.620316388889
 F1 0.721529 0.523708 0.34718  -0.620316388889
 F1 0.278443 0.476293 0.84719  -0.620316388889
 F1 0.27845 0.976293 0.84719  -0.620316388889
 F1 0.778422 0.476293 0.84719  -0.620316388889
 F1 0.778429 0.976293 0.84719  -0.620316388889
