#======================================================================

# CRYSTAL DATA

#----------------------------------------------------------------------

data_VESTA_phase_1


_pd_phase_name                         MOF
_cell_length_a                         19.66900
_cell_length_b                         24.18400
_cell_length_c                         15.40200
_cell_angle_alpha                      95.45300
_cell_angle_beta                       98.28500
_cell_angle_gamma                      113.61700
_symmetry_space_group_name_H-M         "P 1"
_symmetry_Int_Tables_number            1

loop_
_symmetry_equiv_pos_as_xyz
   "x, y, z"

loop_
   _atom_site_label
   _atom_site_fract_x
   _atom_site_fract_y
   _atom_site_fract_z
 _atom_site_charge
 Zn1 0.004312 0.463317 0.20741  0.817011327434
 Zn1 0.004314 0.963315 0.20741  0.817011327434
 Zn1 0.504326 0.463319 0.20741  0.817011327434
 Zn1 0.504328 0.963316 0.20741  0.817011327434
 Zn1 0.273728 0.442494 0.43324  0.817011327434
 Zn1 0.273731 0.942491 0.43324  0.817011327434
 Zn1 0.773745 0.442492 0.43324  0.817011327434
 Zn1 0.773748 0.942489 0.43324  0.817011327434
 Zn2 0.056689 0.40706 0.83281  0.8984979941
 Zn2 0.056691 0.907057 0.83281  0.8984979941
 Zn2 0.556702 0.407057 0.83281  0.8984979941
 Zn2 0.556704 0.907055 0.83281  0.8984979941
 Zn1 0.49572 0.036659 0.79261  0.817011327434
 Zn1 0.495722 0.536656 0.79261  0.817011327434
 Zn1 0.995733 0.03666 0.79261  0.817011327434
 Zn1 0.995736 0.536658 0.79261  0.817011327434
 Zn1 0.226296 0.057474 0.56678  0.817011327434
 Zn1 0.226299 0.557471 0.56678  0.817011327434
 Zn1 0.726313 0.057472 0.56678  0.817011327434
 Zn1 0.726316 0.557469 0.56678  0.817011327434
 Zn2 0.443341 0.09292 0.16721  0.8984979941
 Zn2 0.443342 0.592917 0.16721  0.8984979941
 Zn2 0.943354 0.092918 0.16721  0.8984979941
 Zn2 0.943356 0.592915 0.16721  0.8984979941
 Zn2 0.250018 0.999981 3e-0  0.8984979941
 Zn2 0.25002 0.499977 3e-0  0.8984979941
 Zn2 0.750037 0.999977 3e-0  0.8984979941
 Zn2 0.750039 0.499974 3e-0  0.8984979941
 H1 0.169568 0.020176 0.1557  0.0944627560051
 H1 0.16957 0.520175 0.15574  0.0944627560051
 H1 0.669589 0.020171 0.15575  0.0944627560051
 H1 0.669591 0.520169 0.1557  0.0944627560051
 H1 0.461226 0.408658 0.98655  0.0944627560051
 H1 0.461228 0.908658 0.98655  0.0944627560051
 H1 0.96123 0.408654 0.98655  0.0944627560051
 H1 0.961232 0.908654 0.98655  0.0944627560051
 H1 0.409286 0.426116 0.35965  0.0944627560051
 H1 0.409292 0.926113 0.35965  0.0944627560051
 H1 0.909304 0.426115 0.35965  0.0944627560051
 H1 0.90931 0.926112 0.35965  0.0944627560051
 H1 0.317121 0.05002 0.29428  0.0944627560051
 H1 0.317121 0.550015 0.29428  0.0944627560051
 H1 0.817139 0.05002 0.2942  0.0944627560051
 H1 0.81714 0.550015 0.29428  0.0944627560051
 H1 0.124944 0.404009 0.27746  0.0944627560051
 H1 0.124949 0.904006 0.27746  0.0944627560051
 H1 0.624963 0.404008 0.27746  0.0944627560051
 H1 0.624967 0.904004 0.27746  0.0944627560051
 H1 0.099329 0.05449 0.40512  0.0944627560051
 H1 0.09933 0.554485 0.40512  0.0944627560051
 H1 0.599352 0.054491 0.40512  0.0944627560051
 H1 0.599352 0.554485 0.40512  0.0944627560051
 H1 0.411436 0.254615 0.16661  0.0944627560051
 H1 0.41144 0.754612 0.16660  0.0944627560051
 H1 0.911456 0.254613 0.16660  0.0944627560051
 H1 0.91146 0.75461 0.16659  0.0944627560051
 H1 0.235242 0.314521 0.09993  0.0944627560051
 H1 0.235246 0.814519 0.09993  0.0944627560051
 H1 0.735262 0.314519 0.09993  0.0944627560051
 H1 0.735266 0.814517 0.09993  0.0944627560051
 H1 0.138891 0.20616 0.06875  0.0944627560051
 H1 0.138893 0.706159 0.06876  0.0944627560051
 H1 0.638909 0.206158 0.0687  0.0944627560051
 H1 0.638912 0.706157 0.0687  0.0944627560051
 H1 0.180763 0.121601 0.0744  0.0944627560051
 H1 0.180764 0.6216 0.07445  0.0944627560051
 H1 0.680783 0.121599 0.07444  0.0944627560051
 H1 0.680784 0.621598 0.0744  0.0944627560051
 H1 0.143574 0.248071 0.31287  0.0944627560051
 H1 0.143575 0.748069 0.31287  0.0944627560051
 H1 0.643594 0.24807 0.31287  0.0944627560051
 H1 0.643596 0.748068 0.31287  0.0944627560051
 H1 0.365112 0.2766 0.44691  0.0944627560051
 H1 0.365109 0.776595 0.44692  0.0944627560051
 H1 0.865133 0.276598 0.44690  0.0944627560051
 H1 0.86513 0.776593 0.4469  0.0944627560051
 H1 0.336793 0.167609 0.39112  0.0944627560051
 H1 0.336789 0.667603 0.39113  0.0944627560051
 H1 0.836813 0.167607 0.39111  0.0944627560051
 H1 0.836809 0.667601 0.39112  0.0944627560051
 H1 0.210893 0.099816 0.29377  0.0944627560051
 H1 0.210891 0.599812 0.29377  0.0944627560051
 H1 0.710913 0.099815 0.29376  0.0944627560051
 H1 0.710912 0.599811 0.29377  0.0944627560051
 H1 0.330471 0.479791 0.84429  0.0944627560051
 H1 0.330474 0.979787 0.84429  0.0944627560051
 H1 0.830492 0.479785 0.84429  0.0944627560051
 H1 0.830495 0.979782 0.84429  0.0944627560051
 H1 0.03883 0.091324 0.0134  0.0944627560051
 H1 0.038831 0.591323 0.01347  0.0944627560051
 H1 0.538833 0.091319 0.01347  0.0944627560051
 H1 0.538834 0.591318 0.01347  0.0944627560051
 H1 0.090745 0.073863 0.64037  0.0944627560051
 H1 0.090751 0.57386 0.64037  0.0944627560051
 H1 0.590764 0.073862 0.64037  0.0944627560051
 H1 0.590769 0.573859 0.64037  0.0944627560051
 H1 0.182906 0.449955 0.70575  0.0944627560051
 H1 0.182907 0.94995 0.70574  0.0944627560051
 H1 0.682924 0.449955 0.70575  0.0944627560051
 H1 0.682926 0.94995 0.70575  0.0944627560051
 H1 0.375075 0.095959 0.72256  0.0944627560051
 H1 0.375079 0.595956 0.72256  0.0944627560051
 H1 0.875094 0.095958 0.72256  0.0944627560051
 H1 0.875097 0.595954 0.72256  0.0944627560051
 H1 0.400705 0.445486 0.59490  0.0944627560051
 H1 0.400705 0.945481 0.59490  0.0944627560051
 H1 0.900727 0.445487 0.59490  0.0944627560051
 H1 0.900727 0.945481 0.59490  0.0944627560051
 H1 0.088591 0.245367 0.8334  0.0944627560051
 H1 0.088596 0.745364 0.83340  0.0944627560051
 H1 0.58861 0.245366 0.83341  0.0944627560051
 H1 0.588614 0.745363 0.83341  0.0944627560051
 H1 0.264781 0.185454 0.90007  0.0944627560051
 H1 0.264784 0.685452 0.90008  0.0944627560051
 H1 0.764799 0.185452 0.90007  0.0944627560051
 H1 0.764802 0.68545 0.90008  0.0944627560051
 H1 0.361138 0.293813 0.9312  0.0944627560051
 H1 0.361141 0.793811 0.93125  0.0944627560051
 H1 0.861157 0.293811 0.93124  0.0944627560051
 H1 0.861159 0.793808 0.93125  0.0944627560051
 H1 0.31927 0.378374 0.9255  0.0944627560051
 H1 0.319272 0.878372 0.92556  0.0944627560051
 H1 0.81929 0.378373 0.92555  0.0944627560051
 H1 0.819292 0.87837 0.92556  0.0944627560051
 H1 0.356456 0.251898 0.68715  0.0944627560051
 H1 0.356458 0.751895 0.68715  0.0944627560051
 H1 0.856476 0.251897 0.68715  0.0944627560051
 H1 0.856479 0.751895 0.68715  0.0944627560051
 H1 0.134934 0.223379 0.55307  0.0944627560051
 H1 0.134931 0.723374 0.5530  0.0944627560051
 H1 0.634955 0.223377 0.55307  0.0944627560051
 H1 0.634952 0.723372 0.55308  0.0944627560051
 H1 0.163256 0.332372 0.60886  0.0944627560051
 H1 0.163253 0.832366 0.60887  0.0944627560051
 H1 0.663276 0.33237 0.60885  0.0944627560051
 H1 0.663273 0.832365 0.60886  0.0944627560051
 H1 0.289148 0.40016 0.70623  0.0944627560051
 H1 0.289147 0.900155 0.70623  0.0944627560051
 H1 0.789168 0.400158 0.70622  0.0944627560051
 H1 0.789167 0.900154 0.70623  0.0944627560051
 C1 0.127146 0.490498 0.09884  0.270586327434
 C1 0.127149 0.990493 0.09884  0.270586327434
 C1 0.627166 0.490494 0.09884  0.270586327434
 C1 0.627168 0.990489 0.09884  0.270586327434
 C1 0.021475 0.434202 0.01224  0.270586327434
 C1 0.021477 0.934201 0.01224  0.270586327434
 C1 0.521493 0.434202 0.01224  0.270586327434
 C1 0.521495 0.934201 0.01224  0.270586327434
 C1 0.398833 0.461691 0.33012  0.270586327434
 C1 0.398839 0.961688 0.33012  0.270586327434
 C1 0.898851 0.46169 0.33012  0.270586327434
 C1 0.898856 0.961687 0.33012  0.270586327434
 C1 0.350856 0.023851 0.29676  0.270586327434
 C1 0.350856 0.523846 0.29675  0.270586327434
 C1 0.850873 0.02385 0.29676  0.270586327434
 C1 0.850874 0.523846 0.2967  0.270586327434
 C1 0.132727 0.44369 0.32397  0.270586327434
 C1 0.132731 0.943687 0.32397  0.270586327434
 C1 0.632745 0.443689 0.32397  0.270586327434
 C1 0.632749 0.943685 0.32397  0.270586327434
 C1 0.118645 0.01937 0.38866  0.270586327434
 C1 0.118645 0.519364 0.38866  0.270586327434
 C1 0.618665 0.019369 0.38866  0.270586327434
 C1 0.618665 0.519364 0.38866  0.270586327434
 C2 0.324336 0.132741 0.12762  0.675758827434
 C2 0.324338 0.632737 0.12762  0.675758827434
 C2 0.824354 0.13274 0.12762  0.675758827434
 C2 0.824356 0.632736 0.12762  0.675758827434
 C2 0.387189 0.356607 0.14860  0.675758827434
 C2 0.387189 0.856606 0.14860  0.675758827434
 C2 0.887205 0.356605 0.14860  0.675758827434
 C2 0.887206 0.856604 0.14860  0.675758827434
 C3 0.298537 0.182635 0.12096  -0.177598672566
 C3 0.298539 0.682633 0.12096  -0.177598672566
 C3 0.798554 0.182634 0.12097  -0.177598672566
 C3 0.798559 0.682631 0.12096  -0.177598672566
 C4 0.351934 0.24398 0.14347  -0.0236724225664
 C4 0.351939 0.743977 0.14346  -0.0236724225664
 C4 0.851954 0.243978 0.14347  -0.0236724225664
 C4 0.851958 0.743975 0.1434  -0.0236724225664
 C3 0.329383 0.291393 0.13411  -0.177598672566
 C3 0.329387 0.79139 0.134  -0.177598672566
 C3 0.829401 0.291391 0.13410  -0.177598672566
 C3 0.829406 0.791388 0.13409  -0.177598672566
 C4 0.252202 0.277248 0.10738  -0.0236724225664
 C4 0.252205 0.777245 0.10738  -0.0236724225664
 C4 0.75222 0.277245 0.10737  -0.0236724225664
 C4 0.752224 0.777243 0.1073  -0.0236724225664
 C4 0.198722 0.216532 0.08873  -0.0236724225664
 C4 0.198724 0.71653 0.08873  -0.0236724225664
 C4 0.69874 0.21653 0.08872  -0.0236724225664
 C4 0.698743 0.716528 0.08873  -0.0236724225664
 C4 0.221724 0.169147 0.09294  -0.0236724225664
 C4 0.221726 0.669145 0.09295  -0.0236724225664
 C4 0.721742 0.169145 0.09294  -0.0236724225664
 C4 0.721745 0.669143 0.09295  -0.0236724225664
 C2 0.093969 0.128045 0.24065  0.675758827434
 C2 0.09397 0.628041 0.24065  0.675758827434
 C2 0.593986 0.128042 0.24065  0.675758827434
 C2 0.593986 0.628039 0.24065  0.675758827434
 C2 0.275575 0.334855 0.41385  0.675758827434
 C2 0.275576 0.834852 0.4138  0.675758827434
 C2 0.775597 0.334853 0.41385  0.675758827434
 C2 0.775597 0.83485 0.41385  0.675758827434
 C3 0.169256 0.169385 0.29797  -0.177598672566
 C3 0.169256 0.669382 0.29797  -0.177598672566
 C3 0.669274 0.169384 0.29796  -0.177598672566
 C3 0.669273 0.66938 0.29797  -0.177598672566
 C4 0.185736 0.230396 0.32999  -0.0236724225664
 C4 0.185737 0.730393 0.32999  -0.0236724225664
 C4 0.685756 0.230395 0.32999  -0.0236724225664
 C4 0.685757 0.730392 0.32999  -0.0236724225664
 C3 0.256404 0.268933 0.38301  -0.177598672566
 C3 0.256403 0.768929 0.38301  -0.177598672566
 C3 0.756425 0.268931 0.3830  -0.177598672566
 C3 0.756424 0.768927 0.38301  -0.177598672566
 C4 0.310576 0.245962 0.40524  -0.0236724225664
 C4 0.310575 0.745958 0.40525  -0.0236724225664
 C4 0.810597 0.24596 0.4052  -0.0236724225664
 C4 0.810595 0.745956 0.40524  -0.0236724225664
 C4 0.294331 0.185125 0.37384  -0.0236724225664
 C4 0.294329 0.68512 0.37385  -0.0236724225664
 C4 0.794351 0.185123 0.37384  -0.0236724225664
 C4 0.794349 0.685118 0.37385  -0.0236724225664
 C4 0.224282 0.147215 0.31996  -0.0236724225664
 C4 0.224281 0.647211 0.31996  -0.0236724225664
 C4 0.724302 0.147214 0.31995  -0.0236724225664
 C4 0.7243 0.64721 0.31996  -0.0236724225664
 C1 0.372895 0.009473 0.90119  0.270586327434
 C1 0.372895 0.509469 0.90119  0.270586327434
 C1 0.872914 0.009469 0.90119  0.270586327434
 C1 0.872915 0.509465 0.90119  0.270586327434
 C1 0.478566 0.065771 0.98779  0.270586327434
 C1 0.478567 0.565769 0.98779  0.270586327434
 C1 0.978585 0.065772 0.98779  0.270586327434
 C1 0.978586 0.56577 0.98779  0.270586327434
 C1 0.101196 0.038287 0.66990  0.270586327434
 C1 0.101202 0.538285 0.6699  0.270586327434
 C1 0.601214 0.038286 0.66990  0.270586327434
 C1 0.601219 0.538284 0.66991  0.270586327434
 C1 0.149173 0.476126 0.70327  0.270586327434
 C1 0.149174 0.976121 0.70327  0.270586327434
 C1 0.649191 0.476125 0.70327  0.270586327434
 C1 0.649192 0.97612 0.70327  0.270586327434
 C1 0.367295 0.056279 0.67605  0.270586327434
 C1 0.367299 0.556276 0.67605  0.270586327434
 C1 0.867314 0.056278 0.67605  0.270586327434
 C1 0.867317 0.556274 0.67605  0.270586327434
 C1 0.381387 0.480605 0.61136  0.270586327434
 C1 0.381387 0.980599 0.61136  0.270586327434
 C1 0.881407 0.480605 0.61136  0.270586327434
 C1 0.881408 0.980599 0.61136  0.270586327434
 C2 0.175698 0.36724 0.87240  0.675758827434
 C2 0.175701 0.867236 0.87239  0.675758827434
 C2 0.675717 0.367239 0.87239  0.675758827434
 C2 0.675719 0.867235 0.87239  0.675758827434
 C2 0.112838 0.143374 0.85142  0.675758827434
 C2 0.11284 0.64337 0.85141  0.675758827434
 C2 0.612856 0.14337 0.85142  0.675758827434
 C2 0.612857 0.643368 0.85141  0.675758827434
 C3 0.201494 0.317344 0.87905  -0.177598672566
 C3 0.201499 0.817341 0.8790  -0.177598672566
 C3 0.701514 0.317342 0.87904  -0.177598672566
 C3 0.701518 0.817339 0.87903  -0.177598672566
 C4 0.148093 0.256001 0.85655  -0.0236724225664
 C4 0.148097 0.755998 0.85654  -0.0236724225664
 C4 0.648112 0.255999 0.85655  -0.0236724225664
 C4 0.648116 0.755996 0.85654  -0.0236724225664
 C3 0.170642 0.208586 0.86591  -0.177598672566
 C3 0.170648 0.708582 0.86590  -0.177598672566
 C3 0.67066 0.208584 0.8659  -0.177598672566
 C3 0.670664 0.70858 0.8659  -0.177598672566
 C4 0.247824 0.222729 0.89263  -0.0236724225664
 C4 0.247828 0.722726 0.89263  -0.0236724225664
 C4 0.747842 0.222727 0.89263  -0.0236724225664
 C4 0.747845 0.722724 0.89263  -0.0236724225664
 C4 0.301307 0.283443 0.91127  -0.0236724225664
 C4 0.30131 0.783441 0.91128  -0.0236724225664
 C4 0.801326 0.283441 0.91127  -0.0236724225664
 C4 0.801328 0.783439 0.91128  -0.0236724225664
 C4 0.278307 0.330829 0.90706  -0.0236724225664
 C4 0.278311 0.830827 0.90706  -0.0236724225664
 C4 0.778326 0.330828 0.9070  -0.0236724225664
 C4 0.778329 0.830825 0.90706  -0.0236724225664
 C2 0.406066 0.371929 0.75936  0.675758827434
 C2 0.406066 0.871924 0.75937  0.675758827434
 C2 0.906082 0.371926 0.75936  0.675758827434
 C2 0.906083 0.871922 0.75936  0.675758827434
 C2 0.224458 0.165117 0.58616  0.675758827434
 C2 0.224458 0.665113 0.58616  0.675758827434
 C2 0.724479 0.165115 0.58616  0.675758827434
 C2 0.724479 0.665112 0.58616  0.675758827434
 C3 0.330782 0.330588 0.70204  -0.177598672566
 C3 0.33078 0.830583 0.70205  -0.177598672566
 C3 0.830799 0.330586 0.70204  -0.177598672566
 C3 0.830799 0.830582 0.70204  -0.177598672566
 C4 0.314298 0.269575 0.67002  -0.0236724225664
 C4 0.314298 0.769572 0.6700  -0.0236724225664
 C4 0.814318 0.269574 0.67002  -0.0236724225664
 C4 0.814319 0.769571 0.67002  -0.0236724225664
 C3 0.243634 0.231041 0.61699  -0.177598672566
 C3 0.243632 0.731037 0.61700  -0.177598672566
 C3 0.743654 0.231039 0.61699  -0.177598672566
 C3 0.743654 0.731036 0.61700  -0.177598672566
 C4 0.189466 0.254015 0.59475  -0.0236724225664
 C4 0.189464 0.75401 0.59476  -0.0236724225664
 C4 0.689486 0.254013 0.59475  -0.0236724225664
 C4 0.689485 0.754009 0.5947  -0.0236724225664
 C4 0.205712 0.314853 0.6261  -0.0236724225664
 C4 0.205711 0.814848 0.62615  -0.0236724225664
 C4 0.705733 0.314851 0.62614  -0.0236724225664
 C4 0.705731 0.814847 0.62615  -0.0236724225664
 C4 0.275758 0.35276 0.68004  -0.0236724225664
 C4 0.275757 0.852756 0.68005  -0.0236724225664
 C4 0.775777 0.352759 0.6800  -0.0236724225664
 C4 0.775776 0.852754 0.68004  -0.0236724225664
 N1 0.143282 0.476721 0.02049  -0.2603470059
 N1 0.143284 0.976717 0.02049  -0.2603470059
 N1 0.6433 0.476717 0.02049  -0.2603470059
 N1 0.643302 0.976713 0.02049  -0.2603470059
 N1 0.074664 0.440494 0.96423  -0.2603470059
 N1 0.074666 0.940492 0.96423  -0.2603470059
 N1 0.574681 0.440493 0.96423  -0.2603470059
 N1 0.574683 0.940491 0.96423  -0.2603470059
 N2 0.051971 0.464515 0.09679  -0.4202720059
 N2 0.051973 0.964511 0.09679  -0.4202720059
 N2 0.55199 0.464513 0.09679  -0.4202720059
 N2 0.551992 0.96451 0.09679  -0.4202720059
 N1 0.434659 0.490769 0.26983  -0.2603470059
 N1 0.434664 0.990767 0.26983  -0.2603470059
 N1 0.934674 0.490768 0.26983  -0.2603470059
 N1 0.934679 0.990765 0.26983  -0.2603470059
 N1 0.403651 0.030735 0.24784  -0.2603470059
 N1 0.403651 0.530729 0.24784  -0.2603470059
 N1 0.903666 0.030733 0.24784  -0.2603470059
 N1 0.903666 0.530727 0.24784  -0.2603470059
 N2 0.345815 0.48105 0.34930  -0.4202720059
 N2 0.345821 0.981047 0.34931  -0.4202720059
 N2 0.845834 0.48105 0.3493  -0.4202720059
 N2 0.845839 0.981046 0.34931  -0.4202720059
 N1 0.185416 0.466069 0.39879  -0.2603470059
 N1 0.185419 0.966066 0.39879  -0.2603470059
 N1 0.685433 0.466067 0.39879  -0.2603470059
 N1 0.685437 0.966064 0.3987  -0.2603470059
 N1 0.175977 0.014812 0.44073  -0.2603470059
 N1 0.175977 0.514806 0.44073  -0.2603470059
 N1 0.675997 0.014811 0.44073  -0.2603470059
 N1 0.675998 0.514806 0.44073  -0.2603470059
 N2 0.090216 0.475869 0.31473  -0.4202720059
 N2 0.09022 0.975866 0.31473  -0.4202720059
 N2 0.590234 0.475868 0.31473  -0.4202720059
 N2 0.590239 0.975865 0.31473  -0.4202720059
 N1 0.356761 0.023247 0.97955  -0.2603470059
 N1 0.356762 0.523245 0.97955  -0.2603470059
 N1 0.856779 0.023243 0.97955  -0.2603470059
 N1 0.85678 0.52324 0.97955  -0.2603470059
 N1 0.425379 0.059476 0.0358  -0.2603470059
 N1 0.42538 0.559476 0.03580  -0.2603470059
 N1 0.925396 0.059475 0.0358  -0.2603470059
 N1 0.925398 0.559474 0.03580  -0.2603470059
 N2 0.448069 0.035459 0.90324  -0.4202720059
 N2 0.44807 0.535456 0.90324  -0.4202720059
 N2 0.948088 0.035458 0.90324  -0.4202720059
 N2 0.948089 0.535454 0.90324  -0.4202720059
 N1 0.065372 0.009211 0.730  -0.2603470059
 N1 0.065378 0.50921 0.73020  -0.2603470059
 N1 0.565388 0.00921 0.73019  -0.2603470059
 N1 0.565393 0.509208 0.73020  -0.2603470059
 N1 0.096382 0.469247 0.75219  -0.2603470059
 N1 0.096383 0.969242 0.7521  -0.2603470059
 N1 0.596397 0.469246 0.75219  -0.2603470059
 N1 0.596398 0.96924 0.7521  -0.2603470059
 N2 0.154211 0.018924 0.65072  -0.4202720059
 N2 0.154215 0.518921 0.65072  -0.4202720059
 N2 0.65423 0.018924 0.65072  -0.4202720059
 N2 0.654234 0.518921 0.65072  -0.4202720059
 N1 0.314607 0.033898 0.60124  -0.2603470059
 N1 0.31461 0.533894 0.6012  -0.2603470059
 N1 0.814625 0.033896 0.60124  -0.2603470059
 N1 0.814628 0.533893 0.60123  -0.2603470059
 N1 0.324051 0.485159 0.55929  -0.2603470059
 N1 0.324051 0.985153 0.55929  -0.2603470059
 N1 0.824071 0.485158 0.55929  -0.2603470059
 N1 0.824071 0.985152 0.55929  -0.2603470059
 N2 0.409811 0.024104 0.68529  -0.4202720059
 N2 0.409815 0.5241 0.68529  -0.4202720059
 N2 0.909829 0.024103 0.68529  -0.4202720059
 N2 0.909833 0.5241 0.68529  -0.4202720059
 O1 0.278433 0.077367 0.09284  -0.609026672566
 O1 0.278433 0.577363 0.09285  -0.609026672566
 O1 0.778453 0.077366 0.09284  -0.609026672566
 O1 0.778452 0.577361 0.09284  -0.609026672566
 O1 0.391574 0.14816 0.17035  -0.609026672566
 O1 0.391573 0.648155 0.17035  -0.609026672566
 O1 0.891592 0.148159 0.17035  -0.609026672566
 O1 0.89159 0.648154 0.1703  -0.609026672566
 O1 0.450202 0.370741 0.20385  -0.609026672566
 O1 0.450201 0.870738 0.20385  -0.609026672566
 O1 0.950218 0.370737 0.20385  -0.609026672566
 O1 0.950218 0.870736 0.20385  -0.609026672566
 O2 0.373798 0.39493 0.10736  -0.620998672566
 O2 0.373795 0.894931 0.10737  -0.620998672566
 O2 0.873817 0.394928 0.10736  -0.620998672566
 O2 0.873812 0.894931 0.1073  -0.620998672566
 O2 0.079366 0.072904 0.21321  -0.620998672566
 O2 0.079366 0.572901 0.21322  -0.620998672566
 O2 0.579383 0.072902 0.21321  -0.620998672566
 O2 0.579384 0.572899 0.21321  -0.620998672566
 O1 0.046722 0.152208 0.22193  -0.609026672566
 O1 0.046724 0.652205 0.22193  -0.609026672566
 O1 0.546737 0.152205 0.22193  -0.609026672566
 O1 0.546739 0.652202 0.22193  -0.609026672566
 O1 0.222439 0.353239 0.39252  -0.609026672566
 O1 0.22244 0.853236 0.39252  -0.609026672566
 O1 0.72246 0.353237 0.39252  -0.609026672566
 O1 0.72246 0.853234 0.39252  -0.609026672566
 O2 0.340702 0.370934 0.45624  -0.620998672566
 O2 0.340702 0.870931 0.45624  -0.620998672566
 O2 0.840723 0.370932 0.45624  -0.620998672566
 O2 0.840724 0.870929 0.45624  -0.620998672566
 O1 0.221607 0.422614 0.90717  -0.609026672566
 O1 0.221606 0.922608 0.9071  -0.609026672566
 O1 0.721626 0.422612 0.90717  -0.609026672566
 O1 0.721626 0.922606 0.90717  -0.609026672566
 O1 0.108463 0.351826 0.82967  -0.609026672566
 O1 0.108461 0.851821 0.8296  -0.609026672566
 O1 0.60848 0.351825 0.82967  -0.609026672566
 O1 0.608478 0.851821 0.8296  -0.609026672566
 O1 0.049823 0.12924 0.79617  -0.609026672566
 O1 0.049822 0.629239 0.79618  -0.609026672566
 O1 0.549841 0.129238 0.79617  -0.609026672566
 O1 0.54984 0.629236 0.79618  -0.609026672566
 O2 0.126233 0.105049 0.8926  -0.620998672566
 O2 0.126227 0.60505 0.89266  -0.620998672566
 O2 0.62625 0.105045 0.8926  -0.620998672566
 O2 0.626245 0.605046 0.89266  -0.620998672566
 O2 0.42067 0.42707 0.78680  -0.620998672566
 O2 0.420672 0.927067 0.78679  -0.620998672566
 O2 0.920687 0.427067 0.78679  -0.620998672566
 O2 0.920688 0.927064 0.78680  -0.620998672566
 O1 0.45331 0.347765 0.77810  -0.609026672566
 O1 0.453313 0.847762 0.778  -0.609026672566
 O1 0.953325 0.347761 0.77810  -0.609026672566
 O1 0.953327 0.847758 0.77810  -0.609026672566
 O1 0.277589 0.146729 0.60751  -0.609026672566
 O1 0.277591 0.646726 0.6075  -0.609026672566
 O1 0.77761 0.146727 0.60751  -0.609026672566
 O1 0.777612 0.646725 0.6075  -0.609026672566
 O2 0.159331 0.129039 0.54377  -0.620998672566
 O2 0.159332 0.629036 0.54377  -0.620998672566
 O2 0.659353 0.129037 0.54377  -0.620998672566
 O2 0.659353 0.629034 0.54377  -0.620998672566
