#======================================================================

# CRYSTAL DATA

#----------------------------------------------------------------------

data_VESTA_phase_1


_pd_phase_name                         MOF
_cell_length_a                         12.41800
_cell_length_b                         12.72500
_cell_length_c                         12.72900
_cell_angle_alpha                      76.27500
_cell_angle_beta                       60.83900
_cell_angle_gamma                      60.83800
_symmetry_space_group_name_H-M         "P 1"
_symmetry_Int_Tables_number            1

loop_
_symmetry_equiv_pos_as_xyz
   "x, y, z"

loop_
   _atom_site_label
   _atom_site_fract_x
   _atom_site_fract_y
   _atom_site_fract_z
 _atom_site_charge
 In1 0.314576 0.374316 0.00373  1.82237319444
 In1 0.692152 0.626158 0.99634  1.82237319444
 In1 0.56857 0.496315 0.87368  1.82237319444
 In1 0.938558 0.503819 0.12596  1.82237319444
 H1 0.259361 0.44657 0.68635  0.108259861111
 H1 0.391688 0.554584 0.31345  0.108259861111
 H1 0.195966 0.813632 0.94541  0.108259861111
 H1 0.955835 0.186693 0.05361  0.108259861111
 H1 0.861758 0.185265 0.93856  0.108259861111
 H1 0.985662 0.815167 0.06048  0.108259861111
 H1 0.296125 0.439774 0.31490  0.108259861111
 H1 0.05064 0.561531 0.68496  0.108259861111
 H2 0.136346 0.527456 0.92018  0.478023194444
 H2 0.583202 0.473191 0.07979  0.478023194444
 H2 0.307018 0.580205 0.02693  0.478023194444
 H2 0.912919 0.420113 0.97310  0.478023194444
 H1 0.625273 0.499777 0.49967  0.108259861111
 H1 0.374986 0.999751 0.00029  0.108259861111
 H1 0.624748 0.000496 0.00031  0.108259861111
 H1 0.875071 0.499952 0.50030  0.108259861111
 C1 0.32956 0.472344 0.60437  -0.0368243055556
 C2 0.440116 0.475361 0.60569  -0.0914601388889
 C3 0.451324 0.454104 0.72188  0.729276944444
 C1 0.405862 0.528564 0.39537  -0.0368243055556
 C2 0.521055 0.525046 0.39392  -0.0914601388889
 C3 0.627108 0.546283 0.27772  0.729276944444
 C1 0.184209 0.895551 0.9714  -0.0368243055556
 C2 0.295922 0.894049 0.9749  -0.0914601388889
 C3 0.423204 0.777827 0.95369  0.729276944444
 C1 0.051805 0.104662 0.02777  -0.0368243055556
 C2 0.165426 0.105926 0.02472  -0.0914601388889
 C3 0.155423 0.222135 0.04604  0.729276944444
 C1 0.846817 0.103697 0.96703  -0.0368243055556
 C2 0.731961 0.104753 0.97034  -0.0914601388889
 C3 0.627553 0.219023 0.94566  0.729276944444
 C1 0.917538 0.896813 0.03225  -0.0368243055556
 C2 0.806732 0.895883 0.02942  -0.0914601388889
 C3 0.791849 0.781573 0.05412  0.729276944444
 C1 0.199824 0.467998 0.39655  -0.0368243055556
 C2 0.086155 0.470877 0.39566  -0.0914601388889
 C3 0.095962 0.446212 0.28135  0.729276944444
 C1 0.064086 0.533114 0.60340  -0.0368243055556
 C2 0.952471 0.529841 0.60449  -0.0914601388889
 C3 0.82351 0.554405 0.71880  0.729276944444
 C2 0.309504 0.500525 0.49989  -0.0914601388889
 C1 0.537518 0.500016 0.4997  -0.0368243055556
 C2 0.059823 0.000184 0.99957  -0.0914601388889
 C1 0.287435 0.99993 1.5e-0  -0.0368243055556
 C2 0.940268 0.000258 0.99960  -0.0914601388889
 C1 0.712491 0.000395 7.3e-0  -0.0368243055556
 C2 0.190005 0.500594 0.49993  -0.0914601388889
 C1 0.962588 0.500213 0.50015  -0.0368243055556
 O1 0.387222 0.398018 0.80413  -0.649729930556
 O1 0.522259 0.49667 0.72819  -0.649729930556
 O1 0.588812 0.603005 0.19580  -0.649729930556
 O1 0.747059 0.503225 0.27110  -0.649729930556
 O1 0.441664 0.695841 0.89692  -0.649729930556
 O1 0.50009 0.771234 0.99678  -0.649729930556
 O1 0.035294 0.3042 0.10254  -0.649729930556
 O1 0.268813 0.228638 0.00316  -0.649729930556
 O1 0.667279 0.297233 0.88006  -0.649729930556
 O1 0.505949 0.227176 0.99546  -0.649729930556
 O1 0.845021 0.703032 0.11901  -0.649729930556
 O1 0.727387 0.773702 0.00495  -0.649729930556
 O1 0.213985 0.381269 0.20286  -0.649729930556
 O1 0.982355 0.49544 0.27345  -0.649729930556
 O1 0.797917 0.619646 0.79723  -0.649729930556
 O1 0.751548 0.504797 0.72676  -0.649729930556
 O2 0.127045 0.519467 0.  -1.09995680556
 O2 0.648254 0.480705 0.99811  -1.09995680556
 O2 0.379287 0.498306 0.01914  -1.09995680556
 O2 0.896121 0.501848 0.9808  -1.09995680556
