#======================================================================

# CRYSTAL DATA

#----------------------------------------------------------------------

data_VESTA_phase_1


_pd_phase_name                         MOF
_cell_length_a                         12.88600
_cell_length_b                         13.79300
_cell_length_c                         14.34800
_cell_angle_alpha                      66.73300
_cell_angle_beta                       67.05700
_cell_angle_gamma                      77.72000
_symmetry_space_group_name_H-M         "P 1"
_symmetry_Int_Tables_number            1

loop_
_symmetry_equiv_pos_as_xyz
   "x, y, z"

loop_
   _atom_site_label
   _atom_site_fract_x
   _atom_site_fract_y
   _atom_site_fract_z
 _atom_site_charge
 Y1 0.076038 0.612707 0.49279  1.92860622093
 Y2 0.074718 0.673921 0.83152  1.88088622093
 Y1 0.92403 0.387314 0.50723  1.92860622093
 Y2 0.925366 0.326103 0.16849  1.88088622093
 H1 0.10142 0.81051 0.31941  0.384802887597
 H1 0.157255 0.837548 0.38884  0.384802887597
 H1 0.024553 0.499437 0.77200  0.384802887597
 H1 0.956191 0.480158 0.90006  0.384802887597
 H1 0.065688 0.821118 0.95136  0.384802887597
 H1 0.954152 0.761264 0.  0.384802887597
 H2 0.427596 0.626011 0.40773  0.501402887597
 H2 0.711475 0.640644 0.46878  0.501402887597
 H2 0.385467 0.624672 0.7201  0.501402887597
 H2 0.461778 0.731886 0.74484  0.501402887597
 H2 0.53747 0.761759 0.86422  0.501402887597
 H2 0.732846 0.689733 0.86429  0.501402887597
 H2 0.845594 0.583972 0.7494  0.501402887597
 H2 0.059627 0.145021 0.77979  0.501402887597
 H2 0.275489 0.107769 0.94503  0.501402887597
 H2 0.198152 0.420563 0.74430  0.501402887597
 H2 0.466549 0.22448 0.79810  0.501402887597
 H2 0.610673 0.311728 0.80735  0.501402887597
 H2 0.550458 0.459426 0.87998  0.501402887597
 H2 0.346278 0.517283 0.94397  0.501402887597
 H2 0.36344 0.869164 0.80890  0.501402887597
 H2 0.494442 0.013096 0.72960  0.501402887597
 H2 0.498422 0.155507 0.55362  0.501402887597
 H2 0.376426 0.150133 0.45946  0.501402887597
 H2 0.268522 0.853554 0.51653  0.501402887597
 H2 0.07351 0.035269 0.32679  0.501402887597
 H2 0.170124 0.179019 0.49458  0.501402887597
 H1 0.898646 0.189516 0.6806  0.384802887597
 H1 0.842812 0.162474 0.61118  0.384802887597
 H1 0.975527 0.50059 0.2280  0.384802887597
 H1 0.0 0.519869 0.09995  0.384802887597
 H1 0.934405 0.17889 0.04866  0.384802887597
 H1 0.045932 0.238756 0.99440  0.384802887597
 H2 0.572486 0.374022 0.59227  0.501402887597
 H2 0.288602 0.359411 0.5312  0.501402887597
 H2 0.614612 0.375358 0.27990  0.501402887597
 H2 0.538301 0.268152 0.25516  0.501402887597
 H2 0.462611 0.238277 0.13578  0.501402887597
 H2 0.267231 0.310294 0.13572  0.501402887597
 H2 0.15448 0.416054 0.25055  0.501402887597
 H2 0.940449 0.855 0.22022  0.501402887597
 H2 0.724606 0.892256 0.05497  0.501402887597
 H2 0.801923 0.579461 0.25571  0.501402887597
 H2 0.533538 0.775555 0.20189  0.501402887597
 H2 0.389414 0.688313 0.19263  0.501402887597
 H2 0.449628 0.540608 0.12001  0.501402887597
 H2 0.653807 0.48274 0.05604  0.501402887597
 H2 0.636646 0.130863 0.19111  0.501402887597
 H2 0.505651 0.986925 0.27041  0.501402887597
 H2 0.50167 0.844514 0.4463  0.501402887597
 H2 0.62366 0.849892 0.54055  0.501402887597
 H2 0.73156 0.14647 0.48349  0.501402887597
 H2 0.926563 0.96475 0.67324  0.501402887597
 H2 0.82996 0.821006 0.50544  0.501402887597
 C1 0.266062 0.627425 0.60021  0.78100372093
 C2 0.391768 0.626994 0.5677  -0.106345445736
 C3 0.46322 0.628312 0.46442  0.19299622093
 C3 0.620332 0.633421 0.50052  0.19299622093
 C2 0.557694 0.629907 0.6067  -0.106345445736
 C4 0.44034 0.626595 0.63951  -0.0559514457364
 C2 0.609123 0.639532 0.67861  -0.106345445736
 C4 0.546032 0.698484 0.74594  -0.0559514457364
 C4 0.588835 0.715995 0.8128  -0.0559514457364
 C4 0.697332 0.675296 0.81385  -0.0559514457364
 C4 0.761293 0.616434 0.74824  -0.0559514457364
 C2 0.718878 0.597825 0.68089  -0.106345445736
 C1 0.791614 0.526546 0.62092  0.78100372093
 C1 0.055345 0.362944 0.68098  0.78100372093
 C2 0.118129 0.292177 0.75499  -0.106345445736
 C3 0.111447 0.182083 0.79939  0.19299622093
 C3 0.231897 0.161962 0.89015  0.19299622093
 C2 0.245798 0.270875 0.84973  -0.106345445736
 C4 0.187495 0.336048 0.78022  -0.0559514457364
 C2 0.325049 0.317506 0.87001  -0.106345445736
 C4 0.440297 0.285897 0.83423  -0.0559514457364
 C4 0.521304 0.335397 0.83865  -0.0559514457364
 C4 0.487745 0.419043 0.87797  -0.0559514457364
 C4 0.373687 0.452093 0.91310  -0.0559514457364
 C2 0.291265 0.401175 0.91157  -0.106345445736
 C1 0.170128 0.432009 0.96544  0.78100372093
 C5 0.218218 0.84013 0.73807  0.68904122093
 C2 0.296595 0.92789 0.680  -0.106345445736
 C4 0.367846 0.931308 0.73173  -0.0559514457364
 C4 0.440042 0.012176 0.68779  -0.0559514457364
 C4 0.442158 0.091726 0.58982  -0.0559514457364
 C4 0.37211 0.089487 0.53743  -0.0559514457364
 C2 0.298079 0.008813 0.58079  -0.106345445736
 C2 0.22931 0.014847 0.5158  -0.106345445736
 C3 0.225266 0.93014 0.48668  0.19299622093
 C3 0.117962 0.030859 0.37950  0.19299622093
 C2 0.116411 0.11972 0.40379  -0.106345445736
 C4 0.171823 0.110646 0.47371  -0.0559514457364
 C1 0.054534 0.221409 0.35706  0.78100372093
 C1 0.734016 0.372604 0.39980  0.78100372093
 C2 0.608311 0.37303 0.43224  -0.106345445736
 C3 0.53686 0.371727 0.53558  0.19299622093
 C3 0.379745 0.366629 0.49948  0.19299622093
 C2 0.442384 0.370128 0.39323  -0.106345445736
 C4 0.559739 0.373437 0.36049  -0.0559514457364
 C2 0.390955 0.360508 0.32139  -0.106345445736
 C4 0.454046 0.301553 0.25406  -0.0559514457364
 C4 0.411244 0.284039 0.18715  -0.0559514457364
 C4 0.302745 0.324735 0.18615  -0.0559514457364
 C4 0.238782 0.383595 0.25177  -0.0559514457364
 C2 0.281195 0.402206 0.31912  -0.106345445736
 C1 0.208453 0.473488 0.37908  0.78100372093
 C1 0.944713 0.637077 0.31904  0.78100372093
 C2 0.881946 0.707845 0.24502  -0.106345445736
 C3 0.888632 0.817939 0.20062  0.19299622093
 C3 0.768189 0.838063 0.10986  0.19299622093
 C2 0.75429 0.729149 0.15027  -0.106345445736
 C4 0.812584 0.663976 0.2197  -0.0559514457364
 C2 0.675035 0.682521 0.12999  -0.106345445736
 C4 0.559789 0.714136 0.16576  -0.0559514457364
 C4 0.478783 0.664637 0.16134  -0.0559514457364
 C4 0.512342 0.580989 0.12202  -0.0559514457364
 C4 0.6264 0.547934 0.08690  -0.0559514457364
 C2 0.708821 0.59885 0.08843  -0.106345445736
 C1 0.829957 0.56801 0.03457  0.78100372093
 C5 0.781859 0.159902 0.26195  0.68904122093
 C2 0.703489 0.072136 0.31992  -0.106345445736
 C4 0.632246 0.068716 0.26828  -0.0559514457364
 C4 0.560051 0.987848 0.31222  -0.0559514457364
 C4 0.55793 0.908299 0.41019  -0.0559514457364
 C4 0.627977 0.910535 0.46258  -0.0559514457364
 C2 0.702005 0.99121 0.41923  -0.106345445736
 C2 0.770776 0.985179 0.48413  -0.106345445736
 C3 0.774813 0.069883 0.51334  0.19299622093
 C3 0.882115 0.969162 0.62052  0.19299622093
 C2 0.883669 0.880303 0.5962  -0.106345445736
 C4 0.82826 0.889379 0.52630  -0.0559514457364
 C1 0.94554 0.778611 0.64296  0.78100372093
 N1 0.575782 0.631864 0.43073  -0.396317112403
 N1 0.166073 0.117402 0.86656  -0.396317112403
 N1 0.170545 0.937306 0.42100  -0.396317112403
 N1 0.424299 0.368166 0.56927  -0.396317112403
 N1 0.834022 0.882619 0.13344  -0.396317112403
 N1 0.829533 0.062716 0.57902  -0.396317112403
 O1 0.22728 0.627938 0.53138  -0.661725142706
 O1 0.205572 0.628348 0.69456  -0.661725142706
 O2 0.894051 0.549571 0.55795  -0.76506377907
 O1 0.755467 0.442895 0.63266  -0.661725142706
 O1 0.062022 0.46275 0.65318  -0.661725142706
 O1 0.00083 0.321437 0.65084  -0.661725142706
 O1 0.141577 0.52996 0.95428  -0.661725142706
 O1 0.103556 0.358297 0.02568  -0.661725142706
 O1 0.123544 0.85332 0.72354  -0.661725142706
 O1 0.245514 0.753238 0.80367  -0.661725142706
 O1 0.017828 0.283903 0.41059  -0.661725142706
 O1 0.044092 0.238989 0.26773  -0.661725142706
 O3 0.146561 0.779316 0.36638  -0.889407112403
 O3 0.002894 0.527922 0.83082  -0.889407112403
 O3 0.035656 0.754751 0.96846  -0.889407112403
 O1 0.772798 0.372068 0.46864  -0.661725142706
 O1 0.794507 0.371683 0.3054  -0.661725142706
 O2 0.106023 0.450446 0.44207  -0.76506377907
 O1 0.244591 0.557145 0.36734  -0.661725142706
 O1 0.938045 0.537271 0.34683  -0.661725142706
 O1 0.999245 0.678582 0.34917  -0.661725142706
 O1 0.858502 0.470058 0.04573  -0.661725142706
 O1 0.896532 0.64172 0.97433  -0.661725142706
 O1 0.876543 0.146706 0.27647  -0.661725142706
 O1 0.75457 0.246785 0.19634  -0.661725142706
 O1 0.982243 0.716115 0.58944  -0.661725142706
 O1 0.955988 0.761036 0.73229  -0.661725142706
 O3 0.853498 0.220707 0.63365  -0.889407112403
 O3 0.997197 0.4721 0.16919  -0.889407112403
 O3 0.964426 0.245265 0.03155  -0.889407112403
