#======================================================================

# CRYSTAL DATA

#----------------------------------------------------------------------

data_VESTA_phase_1


_pd_phase_name                         MOF
_cell_length_a                         15.63000
_cell_length_b                         22.95000
_cell_length_c                         22.95000
_cell_angle_alpha                      90.00000
_cell_angle_beta                       90.00400
_cell_angle_gamma                      90.07100
_symmetry_space_group_name_H-M         "P 1"
_symmetry_Int_Tables_number            1

loop_
_symmetry_equiv_pos_as_xyz
   "x, y, z"

loop_
   _atom_site_label
   _atom_site_fract_x
   _atom_site_fract_y
   _atom_site_fract_z
 _atom_site_charge
 Zn1 0.999846 7e-06 2e-0  0.770007916667
 Zn1 0.999495 0.0 0.50000  0.770007916667
 Zn1 0.999903 0.499997 1e-0  0.770007916667
 Zn1 0.000234 0.499995 0.  0.770007916667
 Zn1 0.499762 0.999992 0.  0.770007916667
 Zn1 0.499514 3e-06 0.49998  0.770007916667
 Zn1 0.499877 0.499993 0.99999  0.770007916667
 Zn1 0.500151 0.499999 0.49998  0.770007916667
 Si1 0.249965 0.0 0.99999  1.72988791667
 Si1 0.248897 1e-06 0.49999  1.72988791667
 Si1 0.249985 0.499994 0.  1.72988791667
 Si1 0.249973 0.499997 0.49999  1.72988791667
 Si1 0.748908 0.999999 0.  1.72988791667
 Si1 0.748887 2e-06 0.49999  1.72988791667
 Si1 0.749478 0.499995 0.99999  1.72988791667
 Si1 0.750999 0.499997 0.49999  1.72988791667
 H1 0.366137 0.000142 0.4004  0.0971429166667
 H1 0.366511 0.999979 0.90045  0.0971429166667
 H1 0.367223 0.50024 0.40059  0.0971429166667
 H1 0.366816 0.500469 0.90030  0.0971429166667
 H1 0.866094 0.000142 0.40034  0.0971429166667
 H1 0.866634 0.999998 0.90068  0.0971429166667
 H1 0.867376 0.500139 0.40046  0.0971429166667
 H1 0.866882 0.500464 0.90045  0.0971429166667
 H1 0.360548 0.000186 0.29364  0.0971429166667
 H1 0.360675 0.999988 0.79367  0.0971429166667
 H1 0.361423 0.500132 0.29380  0.0971429166667
 H1 0.361285 0.500418 0.79350  0.0971429166667
 H1 0.860572 0.000182 0.29353  0.0971429166667
 H1 0.860752 0.999998 0.79389  0.0971429166667
 H1 0.861572 0.500147 0.29368  0.0971429166667
 H1 0.861412 0.500378 0.7936  0.0971429166667
 H1 0.366463 0.999806 0.09945  0.0971429166667
 H1 0.366135 0.999992 0.5994  0.0971429166667
 H1 0.366806 0.500214 0.0996  0.0971429166667
 H1 0.367206 0.499766 0.59936  0.0971429166667
 H1 0.866609 0.999821 0.09934  0.0971429166667
 H1 0.866095 0.999968 0.59968  0.0971429166667
 H1 0.866879 0.50014 0.09955  0.0971429166667
 H1 0.867362 0.499858 0.5995  0.0971429166667
 H1 0.360659 0.999787 0.20624  0.0971429166667
 H1 0.360563 0.999977 0.70629  0.0971429166667
 H1 0.361293 0.500121 0.20645  0.0971429166667
 H1 0.361414 0.499838 0.70614  0.0971429166667
 H1 0.860733 0.99978 0.20613  0.0971429166667
 H1 0.860595 0.99997 0.70649  0.0971429166667
 H1 0.861414 0.50015 0.20636  0.0971429166667
 H1 0.86157 0.499835 0.70631  0.0971429166667
 H1 0.366539 0.099484 0.0002  0.0971429166667
 H1 0.366211 0.099657 0.49981  0.0971429166667
 H1 0.366688 0.599325 0.99975  0.0971429166667
 H1 0.367137 0.599202 0.49968  0.0971429166667
 H1 0.866693 0.099427 0.0001  0.0971429166667
 H1 0.866165 0.099603 0.49987  0.0971429166667
 H1 0.866769 0.599429 0.99966  0.0971429166667
 H1 0.867271 0.599266 0.49980  0.0971429166667
 H1 0.360931 0.206264 0.00018  0.0971429166667
 H1 0.360883 0.206467 0.49979  0.0971429166667
 H1 0.360961 0.706097 0.99970  0.0971429166667
 H1 0.361176 0.705957 0.49978  0.0971429166667
 H1 0.861077 0.206219 0.00019  0.0971429166667
 H1 0.860911 0.206414 0.49986  0.0971429166667
 H1 0.861085 0.706214 0.99972  0.0971429166667
 H1 0.861253 0.706005 0.49979  0.0971429166667
 H1 0.366761 0.40043 0.99996  0.0971429166667
 H1 0.367183 0.400616 0.50017  0.0971429166667
 H1 0.366559 0.900297 0.00043  0.0971429166667
 H1 0.366255 0.900162 0.50001  0.0971429166667
 H1 0.866826 0.400392 2e-0  0.0971429166667
 H1 0.867316 0.400539 0.50007  0.0971429166667
 H1 0.866714 0.900407 0.00037  0.0971429166667
 H1 0.866201 0.900202 0.50002  0.0971429166667
 H1 0.360986 0.293632 0.99996  0.0971429166667
 H1 0.36118 0.293831 0.50007  0.0971429166667
 H1 0.360907 0.793486 0.00039  0.0971429166667
 H1 0.360882 0.793323 0.50004  0.0971429166667
 H1 0.861107 0.293582 0.99999  0.0971429166667
 H1 0.861263 0.293767 0.50008  0.0971429166667
 H1 0.861053 0.793586 0.0004  0.0971429166667
 H1 0.860904 0.793362 0.50002  0.0971429166667
 H1 0.132079 0.999862 0.40047  0.0971429166667
 H1 0.132634 3.6e-05 0.90044  0.0971429166667
 H1 0.133358 0.499761 0.40029  0.0971429166667
 H1 0.13287 0.499544 0.90063  0.0971429166667
 H1 0.632096 0.999854 0.4005  0.0971429166667
 H1 0.632454 1.9e-05 0.90028  0.0971429166667
 H1 0.633184 0.499863 0.40043  0.0971429166667
 H1 0.632765 0.499543 0.90043  0.0971429166667
 H1 0.137836 0.999838 0.29370  0.0971429166667
 H1 0.138022 2.6e-05 0.79363  0.0971429166667
 H1 0.138831 0.499871 0.29349  0.0971429166667
 H1 0.138674 0.499587 0.7938  0.0971429166667
 H1 0.63778 0.999832 0.29373  0.0971429166667
 H1 0.637911 1.7e-05 0.79348  0.0971429166667
 H1 0.638663 0.499856 0.29362  0.0971429166667
 H1 0.638521 0.499619 0.79365  0.0971429166667
 H1 0.132582 0.000188 0.09961  0.0971429166667
 H1 0.132081 3e-06 0.59955  0.0971429166667
 H1 0.132856 0.499762 0.09937  0.0971429166667
 H1 0.133346 0.500217 0.59971  0.0971429166667
 H1 0.632432 0.00017 0.0996  0.0971429166667
 H1 0.632097 2.7e-05 0.59943  0.0971429166667
 H1 0.63277 0.499834 0.09952  0.0971429166667
 H1 0.63317 0.500126 0.5995  0.0971429166667
 H1 0.138003 0.000206 0.20641  0.0971429166667
 H1 0.137855 6e-06 0.7063  0.0971429166667
 H1 0.138679 0.499863 0.20615  0.0971429166667
 H1 0.138829 0.500145 0.70652  0.0971429166667
 H1 0.637895 0.000209 0.20645  0.0971429166667
 H1 0.6378 1.5e-05 0.70621  0.0971429166667
 H1 0.638532 0.499834 0.20630  0.0971429166667
 H1 0.638658 0.500149 0.70634  0.0971429166667
 H1 0.132819 0.400528 3.5e-0  0.0971429166667
 H1 0.133298 0.400305 0.49982  0.0971429166667
 H1 0.132701 0.900585 0.9995  0.0971429166667
 H1 0.132187 0.900759 0.49998  0.0971429166667
 H1 0.633143 0.400445 0.49991  0.0971429166667
 H1 0.632715 0.40052 0.99998  0.0971429166667
 H1 0.632216 0.900643 0.49997  0.0971429166667
 H1 0.632516 0.900491 0.99962  0.0971429166667
 H1 0.138376 0.293742 5.3e-0  0.0971429166667
 H1 0.138523 0.293501 0.49992  0.0971429166667
 H1 0.13832 0.793807 0.99961  0.0971429166667
 H1 0.138162 0.794017 0.49995  0.0971429166667
 H1 0.638222 0.293734 2.2e-0  0.0971429166667
 H1 0.638426 0.293633 0.49989  0.0971429166667
 H1 0.638137 0.79372 0.99959  0.0971429166667
 H1 0.638121 0.793892 0.49997  0.0971429166667
 H1 0.132682 0.09961 0.99971  0.0971429166667
 H1 0.13215 0.099405 0.50014  0.0971429166667
 H1 0.132746 0.599692 0.00023  0.0971429166667
 H1 0.133251 0.599865 0.50028  0.0971429166667
 H1 0.632496 0.099652 0.99980  0.0971429166667
 H1 0.632172 0.099534 0.5001  0.0971429166667
 H1 0.632653 0.59964 0.00033  0.0971429166667
 H1 0.633098 0.599737 0.50016  0.0971429166667
 H1 0.138344 0.206419 0.99979  0.0971429166667
 H1 0.13817 0.206177 0.50016  0.0971429166667
 H1 0.138514 0.706698 0.50019  0.0971429166667
 H1 0.138353 0.706504 0.00028  0.0971429166667
 H1 0.638165 0.20645 0.99979  0.0971429166667
 H1 0.638121 0.206316 0.50013  0.0971429166667
 H1 0.638196 0.706446 0.00026  0.0971429166667
 H1 0.63842 0.706578 0.50018  0.0971429166667
 C1 0.999234 5e-06 0.28227  0.114642916667
 C1 0.999381 2e-06 0.78241  0.114642916667
 C1 0.000195 0.500023 0.28225  0.114642916667
 C1 7.4e-05 0.499982 0.78241  0.114642916667
 C1 0.499176 4e-06 0.28234  0.114642916667
 C1 0.49928 2e-06 0.78224  0.114642916667
 C1 0.500027 0.499976 0.28237  0.114642916667
 C1 0.499919 0.500017 0.7822  0.114642916667
 C1 0.999355 0.999998 0.21762  0.114642916667
 C1 0.999256 0.999999 0.71775  0.114642916667
 C1 7.9e-05 0.500022 0.21760  0.114642916667
 C1 0.00019 0.499977 0.71775  0.114642916667
 C1 0.499258 0.999998 0.21768  0.114642916667
 C1 0.499194 1e-06 0.71759  0.114642916667
 C1 0.49993 0.499963 0.21771  0.114642916667
 C1 0.500018 0.500013 0.71758  0.114642916667
 C1 0.999728 0.21766 1e-0  0.114642916667
 C1 0.999597 0.217637 0.50001  0.114642916667
 C1 0.999723 0.717698 2.3e-0  0.114642916667
 C1 0.999851 0.717693 0.49998  0.114642916667
 C1 0.499556 0.217692 0.99998  0.114642916667
 C1 0.49954 0.21773 0.49996  0.114642916667
 C1 0.499567 0.717611 0.99997  0.114642916667
 C1 0.49976 0.71761 0.50000  0.114642916667
 C1 0.999753 0.282321 1.8e-0  0.114642916667
 C1 0.999861 0.282293 0.50002  0.114642916667
 C1 0.999701 0.782357 3e-0  0.114642916667
 C1 0.999589 0.782349 0.49998  0.114642916667
 C1 0.4996 0.282345 0.99998  0.114642916667
 C1 0.499765 0.282389 0.49997  0.114642916667
 C1 0.499527 0.782266 0.99997  0.114642916667
 C1 0.499539 0.782268 0.5000  0.114642916667
 C2 0.42509 9e-05 0.37519  0.163957916667
 C2 0.425409 0.999988 0.87515  0.163957916667
 C2 0.426126 0.500094 0.37528  0.163957916667
 C2 0.425785 0.500227 0.87507  0.163957916667
 C2 0.925066 8.8e-05 0.37510  0.163957916667
 C2 0.925517 5e-06 0.87535  0.163957916667
 C2 0.926283 0.500082 0.37516  0.163957916667
 C2 0.92586 0.500215 0.87522  0.163957916667
 C3 0.422896 9.4e-05 0.31469  -0.198842083333
 C3 0.423072 0.99999 0.81466  -0.198842083333
 C3 0.423818 0.500063 0.31479  -0.198842083333
 C3 0.423623 0.500227 0.81456  -0.198842083333
 C3 0.922907 8.8e-05 0.31460  -0.198842083333
 C3 0.923163 2e-06 0.81486  -0.198842083333
 C3 0.923968 0.500093 0.31467  -0.198842083333
 C3 0.923739 0.500199 0.8147  -0.198842083333
 C2 0.425372 0.999893 0.12475  0.163957916667
 C2 0.425091 0.999993 0.62474  0.163957916667
 C2 0.425779 0.500069 0.12488  0.163957916667
 C2 0.426111 0.499909 0.6246  0.163957916667
 C2 0.925493 0.999898 0.12467  0.163957916667
 C2 0.925072 0.99998 0.62491  0.163957916667
 C2 0.925856 0.500087 0.12478  0.163957916667
 C2 0.926272 0.499915 0.62483  0.163957916667
 C3 0.423055 0.999892 0.18525  -0.198842083333
 C3 0.422908 0.999992 0.68524  -0.198842083333
 C3 0.423629 0.500054 0.18538  -0.198842083333
 C3 0.423807 0.499925 0.68516  -0.198842083333
 C3 0.923141 0.999894 0.18517  -0.198842083333
 C3 0.922926 0.999982 0.68542  -0.198842083333
 C3 0.923738 0.50009 0.18528  -0.198842083333
 C3 0.923963 0.499904 0.68533  -0.198842083333
 C2 0.425494 0.124777 0.00010  0.163957916667
 C2 0.425231 0.124893 0.49988  0.163957916667
 C2 0.425616 0.62465 0.99985  0.163957916667
 C2 0.426008 0.624586 0.49986  0.163957916667
 C2 0.925642 0.124738 0.0001  0.163957916667
 C2 0.9252 0.124821 0.49993  0.163957916667
 C2 0.925705 0.624752 0.99985  0.163957916667
 C2 0.926132 0.624652 0.49988  0.163957916667
 C3 0.423181 0.185396 0.49987  -0.198842083333
 C3 0.423288 0.185277 0.  -0.198842083333
 C3 0.423605 0.685073 0.49988  -0.198842083333
 C3 0.423346 0.685149 0.99982  -0.198842083333
 C3 0.923194 0.185323 0.49993  -0.198842083333
 C3 0.923436 0.185237 0.  -0.198842083333
 C3 0.923695 0.685138 0.49987  -0.198842083333
 C3 0.923458 0.685252 0.99985  -0.198842083333
 C2 0.426036 0.375304 0.5000  0.163957916667
 C2 0.425667 0.375183 0.99996  0.163957916667
 C2 0.425256 0.874996 0.50001  0.163957916667
 C2 0.425498 0.875079 0.  0.163957916667
 C2 0.926161 0.375225 0.50005  0.163957916667
 C2 0.925747 0.37515 0.99999  0.163957916667
 C2 0.925218 0.875056 0.5000  0.163957916667
 C2 0.925646 0.875172 0.  0.163957916667
 C3 0.42337 0.314685 0.99997  -0.198842083333
 C3 0.423615 0.314812 0.50002  -0.198842083333
 C3 0.423267 0.814574 0.00019  -0.198842083333
 C3 0.423186 0.814488 0.50002  -0.198842083333
 C3 0.923482 0.314648 5e-0  -0.198842083333
 C3 0.923709 0.314733 0.50005  -0.198842083333
 C3 0.923415 0.814668 0.00023  -0.198842083333
 C3 0.923193 0.814549 0.50000  -0.198842083333
 C2 0.073162 0.999927 0.37518  0.163957916667
 C2 0.073634 2.2e-05 0.87522  0.163957916667
 C2 0.074375 0.49991 0.37507  0.163957916667
 C2 0.073969 0.499776 0.87533  0.163957916667
 C2 0.573164 0.999924 0.37523  0.163957916667
 C2 0.57347 6e-06 0.87506  0.163957916667
 C2 0.57421 0.499923 0.37519  0.163957916667
 C2 0.573851 0.499785 0.87514  0.163957916667
 C3 0.075447 0.999913 0.31469  -0.198842083333
 C3 0.075705 1.8e-05 0.81472  -0.198842083333
 C3 0.076505 0.499938 0.31457  -0.198842083333
 C3 0.076279 0.499777 0.8148  -0.198842083333
 C3 0.575407 0.999913 0.31474  -0.198842083333
 C3 0.575585 6e-06 0.81456  -0.198842083333
 C3 0.576337 0.499908 0.31470  -0.198842083333
 C3 0.576139 0.499802 0.81464  -0.198842083333
 C2 0.073595 0.0001 0.12482  0.163957916667
 C2 0.073166 0.999997 0.62484  0.163957916667
 C2 0.073959 0.499911 0.12468  0.163957916667
 C2 0.074363 0.500073 0.62493  0.163957916667
 C2 0.573448 9.4e-05 0.12487  0.163957916667
 C2 0.573169 1e-05 0.6247  0.163957916667
 C2 0.573854 0.499893 0.12481  0.163957916667
 C2 0.574198 0.500068 0.62476  0.163957916667
 C3 0.075686 0.000112 0.18532  -0.198842083333
 C3 0.075463 1e-06 0.6853  -0.198842083333
 C3 0.07628 0.49993 0.18517  -0.198842083333
 C3 0.0765 0.500058 0.68543  -0.198842083333
 C3 0.575566 0.000109 0.18537  -0.198842083333
 C3 0.575423 1.1e-05 0.68520  -0.198842083333
 C3 0.576144 0.499894 0.18530  -0.198842083333
 C3 0.576329 0.50008 0.68526  -0.198842083333
 C2 0.073852 0.375236 3.1e-0  0.163957916667
 C2 0.074255 0.375098 0.49995  0.163957916667
 C2 0.073752 0.87528 0.99980  0.163957916667
 C2 0.073318 0.875379 0.49998  0.163957916667
 C2 0.573738 0.375239 1e-0  0.163957916667
 C2 0.57412 0.375209 0.49994  0.163957916667
 C2 0.573564 0.875191 0.99979  0.163957916667
 C2 0.573329 0.875279 0.49998  0.163957916667
 C3 0.076026 0.314737 3.2e-0  -0.198842083333
 C3 0.076245 0.314597 0.49996  -0.198842083333
 C3 0.07596 0.814787 0.99981  -0.198842083333
 C3 0.075729 0.814895 0.49997  -0.198842083333
 C3 0.575884 0.314745 0.99999  -0.198842083333
 C3 0.576136 0.31471 0.49993  -0.198842083333
 C3 0.575777 0.814699 0.99977  -0.198842083333
 C3 0.575702 0.81479 0.49999  -0.198842083333
 C2 0.073749 0.124843 0.99988  0.163957916667
 C2 0.073299 0.124714 0.50008  0.163957916667
 C2 0.073803 0.62491 0.00013  0.163957916667
 C2 0.074226 0.624999 0.50011  0.163957916667
 C2 0.573564 0.124878 0.99988  0.163957916667
 C2 0.573303 0.124827 0.50004  0.163957916667
 C2 0.573696 0.624839 0.00013  0.163957916667
 C2 0.574093 0.6249 0.50008  0.163957916667
 C3 0.075978 0.185342 0.99989  -0.198842083333
 C3 0.07573 0.185205 0.50009  -0.198842083333
 C3 0.076002 0.685408 0.00015  -0.198842083333
 C3 0.076231 0.685506 0.50009  -0.198842083333
 C3 0.5758 0.185374 0.99988  -0.198842083333
 C3 0.575697 0.185322 0.50005  -0.198842083333
 C3 0.575857 0.685334 0.00013  -0.198842083333
 C3 0.576126 0.685404 0.50009  -0.198842083333
 N1 0.999097 5e-06 0.40548  -0.278692083333
 N1 0.999646 1.3e-05 0.90562  -0.278692083333
 N1 0.000383 0.499991 0.40546  -0.278692083333
 N1 0.999885 0.500001 0.90561  -0.278692083333
 N1 0.499115 0.999999 0.40555  -0.278692083333
 N1 0.499485 0.999996 0.90545  -0.278692083333
 N1 0.50021 0.500006 0.40557  -0.278692083333
 N1 0.499791 0.499999 0.90544  -0.278692083333
 N1 0.999618 5e-06 0.09441  -0.278692083333
 N1 0.999099 0.999989 0.5945  -0.278692083333
 N1 0.999873 0.5 0.09440  -0.278692083333
 N1 0.000369 0.499996 0.59454  -0.278692083333
 N1 0.49946 0.999989 0.09448  -0.278692083333
 N1 0.499115 9e-06 0.5943  -0.278692083333
 N1 0.499784 0.499982 0.09451  -0.278692083333
 N1 0.500196 0.499993 0.59438  -0.278692083333
 N1 0.9997 0.094455 1e-0  -0.278692083333
 N1 0.999164 0.094428 0.5000  -0.278692083333
 N1 0.999782 0.594495 0.99999  -0.278692083333
 N1 0.000287 0.594487 0.50000  -0.278692083333
 N1 0.499521 0.09449 0.99999  -0.278692083333
 N1 0.499187 0.094522 0.49996  -0.278692083333
 N1 0.499685 0.59441 1e-0  -0.278692083333
 N1 0.500134 0.59441 0.49997  -0.278692083333
 N1 0.999827 0.405524 1.7e-0  -0.278692083333
 N1 0.000327 0.4055 0.49999  -0.278692083333
 N1 0.999716 0.905558 1.4e-0  -0.278692083333
 N1 0.999196 0.905556 0.50000  -0.278692083333
 N1 0.499731 0.405547 0.99998  -0.278692083333
 N1 0.500173 0.40559 0.49999  -0.278692083333
 N1 0.499536 0.905473 0.99999  -0.278692083333
 N1 0.499225 0.905476 0.49999  -0.278692083333
 F1 0.362918 9e-06 0.9996  -0.479452083333
 F1 0.362121 1.7e-05 0.49999  -0.479452083333
 F1 0.362956 0.499694 0.  -0.479452083333
 F1 0.363026 0.500016 0.49999  -0.479452083333
 F1 0.862254 1.3e-05 3e-0  -0.479452083333
 F1 0.862107 1.7e-05 0.49999  -0.479452083333
 F1 0.862665 0.499859 0.00014  -0.479452083333
 F1 0.863752 0.500009 0.49999  -0.479452083333
 F1 0.136935 0.999991 0.0003  -0.479452083333
 F1 0.13602 0.999986 0.49999  -0.479452083333
 F1 0.136967 0.500296 0.  -0.479452083333
 F1 0.137037 0.499977 0.49999  -0.479452083333
 F1 0.636182 0.999986 0.99999  -0.479452083333
 F1 0.636032 0.999987 0.49999  -0.479452083333
 F1 0.636642 0.500131 0.99985  -0.479452083333
 F1 0.637686 0.499985 0.49999  -0.479452083333
 F2 0.248488 0.447658 0.44765  -0.540002083333
 F2 0.248469 0.44766 0.94764  -0.540002083333
 F2 0.248329 0.947652 0.44765  -0.540002083333
 F2 0.248446 0.947652 0.94764  -0.540002083333
 F2 0.751517 0.447657 0.44765  -0.540002083333
 F2 0.748426 0.447659 0.94764  -0.540002083333
 F2 0.74832 0.947651 0.44765  -0.540002083333
 F2 0.748367 0.947652 0.94764  -0.540002083333
 F2 0.251464 0.052341 0.05233  -0.540002083333
 F2 0.248394 0.052342 0.55233  -0.540002083333
 F2 0.251475 0.552333 0.0523  -0.540002083333
 F2 0.248552 0.552336 0.5523  -0.540002083333
 F2 0.748434 0.05234 0.0523  -0.540002083333
 F2 0.748384 0.052343 0.55233  -0.540002083333
 F2 0.748489 0.552336 0.05233  -0.540002083333
 F2 0.751571 0.552338 0.55233  -0.540002083333
 F2 0.248392 0.052342 0.44765  -0.540002083333
 F2 0.248502 0.052344 0.94764  -0.540002083333
 F2 0.251536 0.552336 0.44765  -0.540002083333
 F2 0.251488 0.552337 0.94764  -0.540002083333
 F2 0.748384 0.052342 0.44765  -0.540002083333
 F2 0.748423 0.052344 0.94764  -0.540002083333
 F2 0.75158 0.552338 0.44765  -0.540002083333
 F2 0.751458 0.552336 0.94764  -0.540002083333
 F2 0.248472 0.447656 0.05234  -0.540002083333
 F2 0.251481 0.447657 0.55233  -0.540002083333
 F2 0.251408 0.947651 0.05233  -0.540002083333
 F2 0.248335 0.947652 0.55233  -0.540002083333
 F2 0.74845 0.447655 0.0523  -0.540002083333
 F2 0.751529 0.447656 0.55233  -0.540002083333
 F2 0.748382 0.947649 0.05234  -0.540002083333
 F2 0.748325 0.947651 0.55233  -0.540002083333
